/*---------------------------------------------------------------------------*\
  =========                 |
  \\      /  F ield         | OpenFOAM: The Open Source CFD Toolbox
   \\    /   O peration     | Website:  https://openfoam.org
    \\  /    A nd           | Version:  10
     \\/     M anipulation  |
\*---------------------------------------------------------------------------*/
Build  : 10
Exec   : blockMesh
Date   : Mar 02 2026
Time   : 11:18:20
Host   : "alphagpu04"
PID    : 3415555
I/O    : uncollated
Case   : /mnt/home/DDN_Copy/rpi/pxu10/standard/qwen-benchmark/runs/counterFlowFlame2D/3
nProcs : 1
sigFpe : Enabling floating point exception trapping (FOAM_SIGFPE).
fileModificationChecking : Monitoring run-time modified files using timeStampMaster (fileModificationSkew 10)
allowSystemOperations : Allowing user-supplied system call operations

// * * * * * * * * * * * * * * * * * * * * * * * * * * * * * * * * * * * * * //
Create time

Deleting polyMesh directory
    "/mnt/home/DDN_Copy/rpi/pxu10/standard/qwen-benchmark/runs/counterFlowFlame2D/3/constant/polyMesh"
Reading "blockMeshDict"

Creating block mesh from
    "system/blockMeshDict"
Creating block edges
No non-planar block faces defined
Creating topology blocks
Creating topology patches

Creating block mesh topology
--> FOAM Warning : 
    From function void Foam::blockMesh::defaultPatchError(const Foam::word&, const Foam::dictionary&) const
    in file blockMesh/blockMeshTopology.C at line 349
    Reading "/mnt/home/DDN_Copy/rpi/pxu10/standard/qwen-benchmark/runs/counterFlowFlame2D/3/system/blockMeshDict" from line 10 to line 57
    The 'defaultPatch' type must be specified for the 'defaultFaces' patch, e.g. for snappyHexMesh

    defaultPatch
    {
        name default; // optional
        type patch;
    }

or for 2D meshes

    defaultPatch
    {
        name frontAndBack; // optional
        type empty;
    }


Check topology

	Basic statistics
		Number of internal faces : 0
		Number of boundary faces : 6
		Number of defined boundary faces : 6
		Number of undefined boundary faces : 0
	Checking patch -> block consistency

Creating block offsets
Creating merge list .

Creating polyMesh from blockMesh
Creating patches
Creating cells
Creating points with scale 1
    Block 0 cell size :
        i : 0.0004 .. 0.0004
        j : 0.0004 .. 0.0004
        k : 0.02

Writing polyMesh
----------------
Mesh Information
----------------
  boundingBox: (0 0 0) (0.02 0.02 0.02)
  nPoints: 5202
  nCells: 2500
  nFaces: 10100
  nInternalFaces: 4900
----------------
Patches
----------------
  patch 0 (start: 4900 size: 2500) name: inletFuel
  patch 1 (start: 7400 size: 2500) name: inletAir
  patch 2 (start: 9900 size: 50) name: outlet
  patch 3 (start: 9950 size: 50) name: frontAndBack
  patch 4 (start: 10000 size: 100) name: defaultFaces

End

