/*---------------------------------------------------------------------------*\
  =========                 |
  \\      /  F ield         | OpenFOAM: The Open Source CFD Toolbox
   \\    /   O peration     | Website:  https://openfoam.org
    \\  /    A nd           | Version:  10
     \\/     M anipulation  |
\*---------------------------------------------------------------------------*/
Build  : 10
Exec   : reactingFoam
Date   : Mar 02 2026
Time   : 11:18:20
Host   : "alphagpu04"
PID    : 3415557
I/O    : uncollated
Case   : /mnt/home/DDN_Copy/rpi/pxu10/standard/qwen-benchmark/runs/counterFlowFlame2D/3
nProcs : 1
sigFpe : Enabling floating point exception trapping (FOAM_SIGFPE).
fileModificationChecking : Monitoring run-time modified files using timeStampMaster (fileModificationSkew 10)
allowSystemOperations : Allowing user-supplied system call operations

// * * * * * * * * * * * * * * * * * * * * * * * * * * * * * * * * * * * * * //
Create time

Create mesh for time = 0


PIMPLE: No convergence criteria found


PIMPLE: Operating solver in transient mode with 1 outer corrector
PIMPLE: Operating solver in PISO mode


Reading thermophysical properties



--> FOAM FATAL IO ERROR: 
keyword thermoType is undefined in dictionary "/mnt/home/DDN_Copy/rpi/pxu10/standard/qwen-benchmark/runs/counterFlowFlame2D/3/constant/physicalProperties"

file: /mnt/home/DDN_Copy/rpi/pxu10/standard/qwen-benchmark/runs/counterFlowFlame2D/3/constant/physicalProperties from line 10 to line 43.

    From function const Foam::entry& Foam::dictionary::lookupEntry(const Foam::word&, bool, bool) const
    in file db/dictionary/dictionary.C at line 831.

FOAM exiting

