/*---------------------------------------------------------------------------*\
  =========                 |
  \\      /  F ield         | OpenFOAM: The Open Source CFD Toolbox
   \\    /   O peration     | Website:  https://openfoam.org
    \\  /    A nd           | Version:  10
     \\/     M anipulation  |
\*---------------------------------------------------------------------------*/
Build  : 10
Exec   : pisoFoam
Date   : Apr 18 2026
Time   : 23:09:23
Host   : "alphagpu11"
PID    : 2745274
I/O    : uncollated
Case   : /mnt/home/DDN_Copy/rpi/pxu10/criteria/qwen3.5-35b-benchmark/runs/Cavity/2
nProcs : 1
sigFpe : Enabling floating point exception trapping (FOAM_SIGFPE).
fileModificationChecking : Monitoring run-time modified files using timeStampMaster (fileModificationSkew 10)
allowSystemOperations : Allowing user-supplied system call operations

// * * * * * * * * * * * * * * * * * * * * * * * * * * * * * * * * * * * * * //
Create time

Create mesh for time = 0

Reading field p

Reading field U

Reading/calculating face flux field phi

Selecting viscosity model Newtonian
Selecting turbulence model type laminar
Selecting laminar stress model Stokes
No MRF models present

No fvModels present
No fvConstraints present

Starting time loop

Time = 0.005s

Courant Number mean: 1.425 max: 1.5
smoothSolver:  Solving for Ux, Initial residual = 1, Final residual = 0.0002760176754, No Iterations 1
smoothSolver:  Solving for Uy, Initial residual = 0.2068070732, Final residual = 7.631467025e-05, No Iterations 1
GAMG:  Solving for p, Initial residual = 1, Final residual = 0.04541506326, No Iterations 2
time step continuity errors : sum local = 0.01175099881, global = -5.082197684e-19, cumulative = -5.082197684e-19


--> FOAM FATAL IO ERROR: 
keyword pFinal is undefined in dictionary "/mnt/home/DDN_Copy/rpi/pxu10/criteria/qwen3.5-35b-benchmark/runs/Cavity/2/system/fvSolution/solvers"

file: /mnt/home/DDN_Copy/rpi/pxu10/criteria/qwen3.5-35b-benchmark/runs/Cavity/2/system/fvSolution/solvers from line 13 to line 24.

    From function const Foam::dictionary& Foam::dictionary::subDict(const Foam::word&) const
    in file db/dictionary/dictionary.C at line 1008.

FOAM exiting

