/*---------------------------------------------------------------------------*\
  =========                 |
  \\      /  F ield         | OpenFOAM: The Open Source CFD Toolbox
   \\    /   O peration     | Website:  https://openfoam.org
    \\  /    A nd           | Version:  10
     \\/     M anipulation  |
\*---------------------------------------------------------------------------*/
Build  : 10
Exec   : blockMesh
Date   : Apr 19 2026
Time   : 14:20:45
Host   : "alphagpu11"
PID    : 3162124
I/O    : uncollated
Case   : /mnt/home/DDN_Copy/rpi/pxu10/criteria/qwen3.5-35b-benchmark/runs/squareBend/2
nProcs : 1
sigFpe : Enabling floating point exception trapping (FOAM_SIGFPE).
fileModificationChecking : Monitoring run-time modified files using timeStampMaster (fileModificationSkew 10)
allowSystemOperations : Allowing user-supplied system call operations

// * * * * * * * * * * * * * * * * * * * * * * * * * * * * * * * * * * * * * //
Create time

Reading "blockMeshDict"

Creating block mesh from
    "system/blockMeshDict"
Creating block edges
No non-planar block faces defined
Creating topology blocks


--> FOAM FATAL IO ERROR: 
Block hex (0 1 2 3 8 9 10 11) (20 20 20) simpleGrading (1(1) 1(1) 1(1)) has inward-pointing faces
    4(0 1 9 8) 

file: /mnt/home/DDN_Copy/rpi/pxu10/criteria/qwen3.5-35b-benchmark/runs/squareBend/2/system/blockMeshDict/blocks at line 33.

    From function void Foam::blockDescriptor::check(const Foam::Istream&)
    in file blockDescriptor/blockDescriptor.C at line 106.

FOAM exiting

