/*---------------------------------------------------------------------------*\
  =========                 |
  \\      /  F ield         | OpenFOAM: The Open Source CFD Toolbox
   \\    /   O peration     | Website:  https://openfoam.org
    \\  /    A nd           | Version:  10
     \\/     M anipulation  |
\*---------------------------------------------------------------------------*/
Build  : 10
Exec   : interFoam
Date   : Apr 19 2026
Time   : 03:09:22
Host   : "alphagpu11"
PID    : 2906835
I/O    : uncollated
Case   : /mnt/home/DDN_Copy/rpi/pxu10/criteria/qwen3.5-35b-benchmark/runs/damBreakWithObstacle/2
nProcs : 1
sigFpe : Enabling floating point exception trapping (FOAM_SIGFPE).
fileModificationChecking : Monitoring run-time modified files using timeStampMaster (fileModificationSkew 10)
allowSystemOperations : Allowing user-supplied system call operations

// * * * * * * * * * * * * * * * * * * * * * * * * * * * * * * * * * * * * * //
Create time

Create mesh for time = 0



--> FOAM FATAL ERROR: 
fvMeshStitcher for changing mesh not found 

Valid fvMeshStitchers are : 
1(stationary)

    From function static Foam::autoPtr<Foam::fvMeshStitcher> Foam::fvMeshStitcher::New(Foam::fvMesh&, bool)
    in file fvMesh/fvMeshStitchers/fvMeshStitcher/fvMeshStitcherNew.C at line 86.

FOAM exiting

