/*---------------------------------------------------------------------------*\
  =========                 |
  \\      /  F ield         | OpenFOAM: The Open Source CFD Toolbox
   \\    /   O peration     | Website:  https://openfoam.org
    \\  /    A nd           | Version:  10
     \\/     M anipulation  |
\*---------------------------------------------------------------------------*/
Build  : 10-c4cf895ad8fa
Exec   : rhoSimpleFoam
Date   : Jul 11 2025
Time   : 11:17:11
Host   : "pan"
PID    : 2405173
I/O    : uncollated
Case   : /home/zhangt20/cfdllmbench/FoamBench/Dataset/Basic/squareBend/2/GT_Files
nProcs : 1
sigFpe : Enabling floating point exception trapping (FOAM_SIGFPE).
fileModificationChecking : Monitoring run-time modified files using timeStampMaster (fileModificationSkew 10)
allowSystemOperations : Allowing user-supplied system call operations

// * * * * * * * * * * * * * * * * * * * * * * * * * * * * * * * * * * * * * //
Create time

Create mesh for time = 0


SIMPLE: Convergence criteria found
        p: tolerance 0.001
        U: tolerance 0.0001
        h: tolerance 0.001
        "(k|epsilon)": tolerance 0.001

Reading thermophysical properties

Selecting thermodynamics package 
{
    type            hePsiThermo;
    mixture         pureMixture;
    transport       const;
    thermo          hConst;
    equationOfState perfectGas;
    specie          specie;
    energy          sensibleEnthalpy;
}

Reading field U

Reading/calculating face flux field phi

Creating turbulence model

Selecting turbulence model type RAS
Selecting RAS turbulence model kEpsilon
RAS
{
    model           kEpsilon;
    turbulence      on;
    printCoeffs     on;
    Cmu             0.09;
    C1              1.44;
    C2              1.92;
    C3              0;
    sigmak          1;
    sigmaEps        1.3;
}

Creating thermophysical transport model

Selecting thermophysical transport type RAS
Selecting default RAS thermophysical transport model unityLewisEddyDiffusivity
No MRF models present

No fvModels present
Creating fvConstraints from "system/fvConstraints"

Selecting finite volume constraint type limitPressure
    Name: limitp
    min 11000
    max 220000


Starting time loop

Time = 1s

DILUPBiCGStab:  Solving for Ux, Initial residual = 1, Final residual = 0.000127748, No Iterations 1
DILUPBiCGStab:  Solving for Uy, Initial residual = 1, Final residual = 0.000112192, No Iterations 1
DILUPBiCGStab:  Solving for Uz, Initial residual = 1, Final residual = 0.000112192, No Iterations 1
DILUPBiCGStab:  Solving for h, Initial residual = 1, Final residual = 1.5035e-05, No Iterations 1
GAMG:  Solving for p, Initial residual = 1, Final residual = 0.0996551, No Iterations 88
time step continuity errors : sum local = 73.1907, global = -72.6811, cumulative = -72.6811
DILUPBiCGStab:  Solving for epsilon, Initial residual = 0.664426, Final residual = 0.0264966, No Iterations 1
DILUPBiCGStab:  Solving for k, Initial residual = 1, Final residual = 0.092182, No Iterations 1
ExecutionTime = 1.10664 s  ClockTime = 1 s

Time = 2s

DILUPBiCGStab:  Solving for Ux, Initial residual = 0.0217855, Final residual = 0.000347586, No Iterations 1
DILUPBiCGStab:  Solving for Uy, Initial residual = 0.119834, Final residual = 0.00593582, No Iterations 1
DILUPBiCGStab:  Solving for Uz, Initial residual = 0.981637, Final residual = 0.0482532, No Iterations 1
DILUPBiCGStab:  Solving for h, Initial residual = 0.014844, Final residual = 0.000970481, No Iterations 1
GAMG:  Solving for p, Initial residual = 0.722699, Final residual = 0.047432, No Iterations 4
time step continuity errors : sum local = 159.251, global = -51.4965, cumulative = -124.178
DILUPBiCGStab:  Solving for epsilon, Initial residual = 0.583675, Final residual = 0.00149119, No Iterations 1
DILUPBiCGStab:  Solving for k, Initial residual = 0.0311017, Final residual = 0.0026935, No Iterations 1
ExecutionTime = 1.24285 s  ClockTime = 1 s

Time = 3s

DILUPBiCGStab:  Solving for Ux, Initial residual = 0.0204928, Final residual = 0.00163511, No Iterations 1
DILUPBiCGStab:  Solving for Uy, Initial residual = 0.0873129, Final residual = 0.00301862, No Iterations 2
DILUPBiCGStab:  Solving for Uz, Initial residual = 0.584941, Final residual = 0.0222503, No Iterations 2
DILUPBiCGStab:  Solving for h, Initial residual = 0.361827, Final residual = 0.0325619, No Iterations 1
GAMG:  Solving for p, Initial residual = 0.17774, Final residual = 0.0132992, No Iterations 1
time step continuity errors : sum local = 353.564, global = -61.1663, cumulative = -185.344
DILUPBiCGStab:  Solving for epsilon, Initial residual = 0.127748, Final residual = 0.0073388, No Iterations 2
DILUPBiCGStab:  Solving for k, Initial residual = 0.350487, Final residual = 0.0117878, No Iterations 2
ExecutionTime = 1.36844 s  ClockTime = 1 s

Time = 4s

DILUPBiCGStab:  Solving for Ux, Initial residual = 0.0116011, Final residual = 0.00035568, No Iterations 2
DILUPBiCGStab:  Solving for Uy, Initial residual = 0.0493975, Final residual = 0.00183961, No Iterations 2
DILUPBiCGStab:  Solving for Uz, Initial residual = 0.390514, Final residual = 0.0153057, No Iterations 2
DILUPBiCGStab:  Solving for h, Initial residual = 0.213788, Final residual = 0.00957782, No Iterations 2
GAMG:  Solving for p, Initial residual = 0.228846, Final residual = 0.00983827, No Iterations 2
time step continuity errors : sum local = 178.612, global = -55.4396, cumulative = -240.783
DILUPBiCGStab:  Solving for epsilon, Initial residual = 0.121829, Final residual = 0.0060297, No Iterations 2
DILUPBiCGStab:  Solving for k, Initial residual = 0.259114, Final residual = 0.00922929, No Iterations 2
ExecutionTime = 1.50456 s  ClockTime = 1 s

Time = 5s

DILUPBiCGStab:  Solving for Ux, Initial residual = 0.0144212, Final residual = 0.000461314, No Iterations 2
DILUPBiCGStab:  Solving for Uy, Initial residual = 0.0411265, Final residual = 0.00148457, No Iterations 2
DILUPBiCGStab:  Solving for Uz, Initial residual = 0.324669, Final residual = 0.0322846, No Iterations 1
DILUPBiCGStab:  Solving for h, Initial residual = 0.212833, Final residual = 0.0104841, No Iterations 2
GAMG:  Solving for p, Initial residual = 0.167451, Final residual = 0.0145974, No Iterations 1
time step continuity errors : sum local = 172.288, global = -54.0027, cumulative = -294.786
DILUPBiCGStab:  Solving for epsilon, Initial residual = 0.0575783, Final residual = 0.0057133, No Iterations 1
DILUPBiCGStab:  Solving for k, Initial residual = 0.204442, Final residual = 0.006227, No Iterations 2
ExecutionTime = 1.63835 s  ClockTime = 2 s

Time = 6s

DILUPBiCGStab:  Solving for Ux, Initial residual = 0.0136914, Final residual = 0.000505224, No Iterations 2
DILUPBiCGStab:  Solving for Uy, Initial residual = 0.0300464, Final residual = 0.00120954, No Iterations 2
DILUPBiCGStab:  Solving for Uz, Initial residual = 0.345729, Final residual = 0.0129979, No Iterations 2
DILUPBiCGStab:  Solving for h, Initial residual = 0.166254, Final residual = 0.00873111, No Iterations 2
GAMG:  Solving for p, Initial residual = 0.138413, Final residual = 0.0132438, No Iterations 1
time step continuity errors : sum local = 168.802, global = -51.4915, cumulative = -346.278
DILUPBiCGStab:  Solving for epsilon, Initial residual = 0.0264005, Final residual = 0.00256033, No Iterations 1
DILUPBiCGStab:  Solving for k, Initial residual = 0.152791, Final residual = 0.00511912, No Iterations 2
ExecutionTime = 1.76618 s  ClockTime = 2 s

Time = 7s

DILUPBiCGStab:  Solving for Ux, Initial residual = 0.0131547, Final residual = 0.000470047, No Iterations 2
DILUPBiCGStab:  Solving for Uy, Initial residual = 0.0244743, Final residual = 0.000952454, No Iterations 2
DILUPBiCGStab:  Solving for Uz, Initial residual = 0.287265, Final residual = 0.0286301, No Iterations 1
DILUPBiCGStab:  Solving for h, Initial residual = 0.129273, Final residual = 0.00515432, No Iterations 2
GAMG:  Solving for p, Initial residual = 0.114197, Final residual = 0.00560566, No Iterations 2
time step continuity errors : sum local = 87.8312, global = -48.3945, cumulative = -394.672
DILUPBiCGStab:  Solving for epsilon, Initial residual = 0.0194801, Final residual = 0.00188673, No Iterations 1
DILUPBiCGStab:  Solving for k, Initial residual = 0.124937, Final residual = 0.00427802, No Iterations 2
ExecutionTime = 1.89923 s  ClockTime = 2 s

Time = 8s

DILUPBiCGStab:  Solving for Ux, Initial residual = 0.0135682, Final residual = 0.000503752, No Iterations 2
DILUPBiCGStab:  Solving for Uy, Initial residual = 0.023017, Final residual = 0.000845966, No Iterations 2
DILUPBiCGStab:  Solving for Uz, Initial residual = 0.275978, Final residual = 0.00970804, No Iterations 2
DILUPBiCGStab:  Solving for h, Initial residual = 0.10808, Final residual = 0.00473296, No Iterations 2
GAMG:  Solving for p, Initial residual = 0.0972595, Final residual = 0.00556505, No Iterations 2
time step continuity errors : sum local = 77.152, global = -44.342, cumulative = -439.014
DILUPBiCGStab:  Solving for epsilon, Initial residual = 0.0240315, Final residual = 0.00225213, No Iterations 1
DILUPBiCGStab:  Solving for k, Initial residual = 0.102862, Final residual = 0.00449304, No Iterations 2
ExecutionTime = 2.03363 s  ClockTime = 2 s

Time = 9s

DILUPBiCGStab:  Solving for Ux, Initial residual = 0.0134945, Final residual = 0.000482658, No Iterations 2
DILUPBiCGStab:  Solving for Uy, Initial residual = 0.0202659, Final residual = 0.000741125, No Iterations 2
DILUPBiCGStab:  Solving for Uz, Initial residual = 0.236677, Final residual = 0.0225046, No Iterations 1
DILUPBiCGStab:  Solving for h, Initial residual = 0.0915274, Final residual = 0.00412927, No Iterations 2
GAMG:  Solving for p, Initial residual = 0.0863175, Final residual = 0.00497783, No Iterations 2
time step continuity errors : sum local = 64.5214, global = -37.7599, cumulative = -476.774
DILUPBiCGStab:  Solving for epsilon, Initial residual = 0.0248941, Final residual = 0.00240644, No Iterations 1
DILUPBiCGStab:  Solving for k, Initial residual = 0.0871563, Final residual = 0.00026955, No Iterations 3
ExecutionTime = 2.16959 s  ClockTime = 2 s

Time = 10s

DILUPBiCGStab:  Solving for Ux, Initial residual = 0.0131257, Final residual = 0.000429871, No Iterations 2
DILUPBiCGStab:  Solving for Uy, Initial residual = 0.0173314, Final residual = 0.000634988, No Iterations 2
DILUPBiCGStab:  Solving for Uz, Initial residual = 0.211388, Final residual = 0.0175644, No Iterations 1
DILUPBiCGStab:  Solving for h, Initial residual = 0.0795257, Final residual = 0.00400695, No Iterations 2
GAMG:  Solving for p, Initial residual = 0.075773, Final residual = 0.00734007, No Iterations 1
time step continuity errors : sum local = 79.7239, global = -31.7852, cumulative = -508.559
DILUPBiCGStab:  Solving for epsilon, Initial residual = 0.0248447, Final residual = 0.00240495, No Iterations 1
DILUPBiCGStab:  Solving for k, Initial residual = 0.0774759, Final residual = 0.00761483, No Iterations 1
ExecutionTime = 2.29447 s  ClockTime = 2 s

Time = 11s

DILUPBiCGStab:  Solving for Ux, Initial residual = 0.0122539, Final residual = 0.00122099, No Iterations 1
DILUPBiCGStab:  Solving for Uy, Initial residual = 0.0153036, Final residual = 0.000548797, No Iterations 2
DILUPBiCGStab:  Solving for Uz, Initial residual = 0.191931, Final residual = 0.0149618, No Iterations 1
DILUPBiCGStab:  Solving for h, Initial residual = 0.0705516, Final residual = 0.00343574, No Iterations 2
GAMG:  Solving for p, Initial residual = 0.066993, Final residual = 0.00381541, No Iterations 2
time step continuity errors : sum local = 47.1978, global = -23.51, cumulative = -532.069
DILUPBiCGStab:  Solving for epsilon, Initial residual = 0.0237171, Final residual = 0.00221951, No Iterations 1
DILUPBiCGStab:  Solving for k, Initial residual = 0.0699977, Final residual = 0.00657041, No Iterations 1
ExecutionTime = 2.42448 s  ClockTime = 2 s

Time = 12s

DILUPBiCGStab:  Solving for Ux, Initial residual = 0.0116183, Final residual = 0.000367734, No Iterations 2
DILUPBiCGStab:  Solving for Uy, Initial residual = 0.0149026, Final residual = 0.000508367, No Iterations 2
DILUPBiCGStab:  Solving for Uz, Initial residual = 0.202962, Final residual = 0.0168433, No Iterations 1
DILUPBiCGStab:  Solving for h, Initial residual = 0.063182, Final residual = 0.00607868, No Iterations 1
GAMG:  Solving for p, Initial residual = 0.0590794, Final residual = 0.00509159, No Iterations 1
time step continuity errors : sum local = 53.3374, global = -17.6083, cumulative = -549.678
DILUPBiCGStab:  Solving for epsilon, Initial residual = 0.0225632, Final residual = 0.00202608, No Iterations 1
DILUPBiCGStab:  Solving for k, Initial residual = 0.0648324, Final residual = 0.00595604, No Iterations 1
ExecutionTime = 2.54762 s  ClockTime = 3 s

Time = 13s

DILUPBiCGStab:  Solving for Ux, Initial residual = 0.0106004, Final residual = 0.000332363, No Iterations 2
DILUPBiCGStab:  Solving for Uy, Initial residual = 0.0143357, Final residual = 0.000498053, No Iterations 2
DILUPBiCGStab:  Solving for Uz, Initial residual = 0.187948, Final residual = 0.0169517, No Iterations 1
DILUPBiCGStab:  Solving for h, Initial residual = 0.057107, Final residual = 0.00518715, No Iterations 1
GAMG:  Solving for p, Initial residual = 0.0534616, Final residual = 0.004966, No Iterations 1
time step continuity errors : sum local = 50.0249, global = -12.795, cumulative = -562.473
DILUPBiCGStab:  Solving for epsilon, Initial residual = 0.0215834, Final residual = 0.0018375, No Iterations 1
DILUPBiCGStab:  Solving for k, Initial residual = 0.0604559, Final residual = 0.00546354, No Iterations 1
ExecutionTime = 2.67331 s  ClockTime = 3 s

Time = 14s

DILUPBiCGStab:  Solving for Ux, Initial residual = 0.0098922, Final residual = 0.000305083, No Iterations 2
DILUPBiCGStab:  Solving for Uy, Initial residual = 0.0142246, Final residual = 0.000507606, No Iterations 2
DILUPBiCGStab:  Solving for Uz, Initial residual = 0.182064, Final residual = 0.0174834, No Iterations 1
DILUPBiCGStab:  Solving for h, Initial residual = 0.0521817, Final residual = 0.00443395, No Iterations 1
GAMG:  Solving for p, Initial residual = 0.0481292, Final residual = 0.00474709, No Iterations 1
time step continuity errors : sum local = 46.7575, global = -9.37208, cumulative = -571.845
DILUPBiCGStab:  Solving for epsilon, Initial residual = 0.0205877, Final residual = 0.00167245, No Iterations 1
DILUPBiCGStab:  Solving for k, Initial residual = 0.0569275, Final residual = 0.00505467, No Iterations 1
ExecutionTime = 2.79648 s  ClockTime = 3 s

Time = 15s

DILUPBiCGStab:  Solving for Ux, Initial residual = 0.00948195, Final residual = 0.000929736, No Iterations 1
DILUPBiCGStab:  Solving for Uy, Initial residual = 0.0140364, Final residual = 0.000521304, No Iterations 2
DILUPBiCGStab:  Solving for Uz, Initial residual = 0.172903, Final residual = 0.00613753, No Iterations 2
DILUPBiCGStab:  Solving for h, Initial residual = 0.0479562, Final residual = 0.00382856, No Iterations 1
GAMG:  Solving for p, Initial residual = 0.0439937, Final residual = 0.00253132, No Iterations 2
time step continuity errors : sum local = 30.7628, global = -8.60534, cumulative = -580.45
DILUPBiCGStab:  Solving for epsilon, Initial residual = 0.0197787, Final residual = 0.0015259, No Iterations 1
DILUPBiCGStab:  Solving for k, Initial residual = 0.0541499, Final residual = 0.00470784, No Iterations 1
ExecutionTime = 2.92662 s  ClockTime = 3 s

Time = 16s

DILUPBiCGStab:  Solving for Ux, Initial residual = 0.00989987, Final residual = 0.000977282, No Iterations 1
DILUPBiCGStab:  Solving for Uy, Initial residual = 0.0136907, Final residual = 0.000523505, No Iterations 2
DILUPBiCGStab:  Solving for Uz, Initial residual = 0.164423, Final residual = 0.00596599, No Iterations 2
DILUPBiCGStab:  Solving for h, Initial residual = 0.0442788, Final residual = 0.00329683, No Iterations 1
GAMG:  Solving for p, Initial residual = 0.0400796, Final residual = 0.0020847, No Iterations 2
time step continuity errors : sum local = 27.0045, global = -9.26896, cumulative = -589.719
DILUPBiCGStab:  Solving for epsilon, Initial residual = 0.0191342, Final residual = 0.00139924, No Iterations 1
DILUPBiCGStab:  Solving for k, Initial residual = 0.0519442, Final residual = 0.00436641, No Iterations 1
ExecutionTime = 3.05627 s  ClockTime = 3 s

Time = 17s

DILUPBiCGStab:  Solving for Ux, Initial residual = 0.0102358, Final residual = 0.0010222, No Iterations 1
DILUPBiCGStab:  Solving for Uy, Initial residual = 0.0121298, Final residual = 0.000473638, No Iterations 2
DILUPBiCGStab:  Solving for Uz, Initial residual = 0.141112, Final residual = 0.00508462, No Iterations 2
DILUPBiCGStab:  Solving for h, Initial residual = 0.0412285, Final residual = 0.00290225, No Iterations 1
GAMG:  Solving for p, Initial residual = 0.0360026, Final residual = 0.001714, No Iterations 2
time step continuity errors : sum local = 24.4701, global = -10.5369, cumulative = -600.256
DILUPBiCGStab:  Solving for epsilon, Initial residual = 0.0185569, Final residual = 0.00128496, No Iterations 1
DILUPBiCGStab:  Solving for k, Initial residual = 0.049999, Final residual = 0.0040289, No Iterations 1
ExecutionTime = 3.18635 s  ClockTime = 3 s

Time = 18s

DILUPBiCGStab:  Solving for Ux, Initial residual = 0.0104441, Final residual = 0.000369197, No Iterations 2
DILUPBiCGStab:  Solving for Uy, Initial residual = 0.0108562, Final residual = 0.000421808, No Iterations 2
DILUPBiCGStab:  Solving for Uz, Initial residual = 0.120846, Final residual = 0.0119906, No Iterations 1
DILUPBiCGStab:  Solving for h, Initial residual = 0.038581, Final residual = 0.00259447, No Iterations 1
GAMG:  Solving for p, Initial residual = 0.0322492, Final residual = 0.00319508, No Iterations 1
time step continuity errors : sum local = 34.4683, global = -10.0491, cumulative = -610.305
DILUPBiCGStab:  Solving for epsilon, Initial residual = 0.0180127, Final residual = 0.00118002, No Iterations 1
DILUPBiCGStab:  Solving for k, Initial residual = 0.048064, Final residual = 0.00368434, No Iterations 1
ExecutionTime = 3.31449 s  ClockTime = 3 s

Time = 19s

DILUPBiCGStab:  Solving for Ux, Initial residual = 0.00996859, Final residual = 0.000339475, No Iterations 2
DILUPBiCGStab:  Solving for Uy, Initial residual = 0.00994285, Final residual = 0.000370449, No Iterations 2
DILUPBiCGStab:  Solving for Uz, Initial residual = 0.103663, Final residual = 0.0102495, No Iterations 1
DILUPBiCGStab:  Solving for h, Initial residual = 0.0362646, Final residual = 0.00233359, No Iterations 1
GAMG:  Solving for p, Initial residual = 0.0297108, Final residual = 0.00189, No Iterations 2
time step continuity errors : sum local = 27.9879, global = -11.661, cumulative = -621.966
DILUPBiCGStab:  Solving for epsilon, Initial residual = 0.0173639, Final residual = 0.00109529, No Iterations 1
DILUPBiCGStab:  Solving for k, Initial residual = 0.0463069, Final residual = 0.00339197, No Iterations 1
ExecutionTime = 3.4457 s  ClockTime = 3 s

Time = 20s

DILUPBiCGStab:  Solving for Ux, Initial residual = 0.010377, Final residual = 0.000342408, No Iterations 2
DILUPBiCGStab:  Solving for Uy, Initial residual = 0.00927213, Final residual = 0.000350704, No Iterations 2
DILUPBiCGStab:  Solving for Uz, Initial residual = 0.101998, Final residual = 0.00990513, No Iterations 1
DILUPBiCGStab:  Solving for h, Initial residual = 0.0344067, Final residual = 0.00222261, No Iterations 1
GAMG:  Solving for p, Initial residual = 0.0269529, Final residual = 0.00169998, No Iterations 2
time step continuity errors : sum local = 27.6288, global = -12.214, cumulative = -634.18
DILUPBiCGStab:  Solving for epsilon, Initial residual = 0.0166933, Final residual = 0.00101427, No Iterations 1
DILUPBiCGStab:  Solving for k, Initial residual = 0.0445949, Final residual = 0.00319223, No Iterations 1
ExecutionTime = 3.57595 s  ClockTime = 4 s

Time = 21s

DILUPBiCGStab:  Solving for Ux, Initial residual = 0.0103974, Final residual = 0.000340449, No Iterations 2
DILUPBiCGStab:  Solving for Uy, Initial residual = 0.0086816, Final residual = 0.000324746, No Iterations 2
DILUPBiCGStab:  Solving for Uz, Initial residual = 0.096167, Final residual = 0.00347515, No Iterations 2
DILUPBiCGStab:  Solving for h, Initial residual = 0.0328911, Final residual = 0.0020584, No Iterations 1
GAMG:  Solving for p, Initial residual = 0.0254966, Final residual = 0.00175245, No Iterations 2
time step continuity errors : sum local = 29.0789, global = -12.632, cumulative = -646.812
DILUPBiCGStab:  Solving for epsilon, Initial residual = 0.0160552, Final residual = 0.000957099, No Iterations 1
DILUPBiCGStab:  Solving for k, Initial residual = 0.0429639, Final residual = 0.00302154, No Iterations 1
ExecutionTime = 3.7071 s  ClockTime = 4 s

Time = 22s

DILUPBiCGStab:  Solving for Ux, Initial residual = 0.0103587, Final residual = 0.000338004, No Iterations 2
DILUPBiCGStab:  Solving for Uy, Initial residual = 0.0080356, Final residual = 0.000297697, No Iterations 2
DILUPBiCGStab:  Solving for Uz, Initial residual = 0.0881234, Final residual = 0.00314535, No Iterations 2
DILUPBiCGStab:  Solving for h, Initial residual = 0.0316039, Final residual = 0.00190238, No Iterations 1
GAMG:  Solving for p, Initial residual = 0.0241085, Final residual = 0.00175193, No Iterations 2
time step continuity errors : sum local = 30.0452, global = -13.2403, cumulative = -660.052
DILUPBiCGStab:  Solving for epsilon, Initial residual = 0.0154899, Final residual = 0.000917649, No Iterations 1
DILUPBiCGStab:  Solving for k, Initial residual = 0.0415631, Final residual = 0.00290314, No Iterations 1
ExecutionTime = 3.83911 s  ClockTime = 4 s

Time = 23s

DILUPBiCGStab:  Solving for Ux, Initial residual = 0.0103422, Final residual = 0.000339697, No Iterations 2
DILUPBiCGStab:  Solving for Uy, Initial residual = 0.00728092, Final residual = 0.000271291, No Iterations 2
DILUPBiCGStab:  Solving for Uz, Initial residual = 0.0807029, Final residual = 0.00288939, No Iterations 2
DILUPBiCGStab:  Solving for h, Initial residual = 0.0305641, Final residual = 0.00177545, No Iterations 1
GAMG:  Solving for p, Initial residual = 0.0227919, Final residual = 0.00165374, No Iterations 2
time step continuity errors : sum local = 30.0826, global = -13.9955, cumulative = -674.048
DILUPBiCGStab:  Solving for epsilon, Initial residual = 0.0150141, Final residual = 0.000891695, No Iterations 1
DILUPBiCGStab:  Solving for k, Initial residual = 0.0404341, Final residual = 0.00282556, No Iterations 1
ExecutionTime = 3.97387 s  ClockTime = 4 s

Time = 24s

DILUPBiCGStab:  Solving for Ux, Initial residual = 0.0103286, Final residual = 0.000342478, No Iterations 2
DILUPBiCGStab:  Solving for Uy, Initial residual = 0.00653668, Final residual = 0.000246925, No Iterations 2
DILUPBiCGStab:  Solving for Uz, Initial residual = 0.0734404, Final residual = 0.00263938, No Iterations 2
DILUPBiCGStab:  Solving for h, Initial residual = 0.0297543, Final residual = 0.00168088, No Iterations 1
GAMG:  Solving for p, Initial residual = 0.0215565, Final residual = 0.00150708, No Iterations 2
time step continuity errors : sum local = 29.3963, global = -14.6981, cumulative = -688.746
DILUPBiCGStab:  Solving for epsilon, Initial residual = 0.0146119, Final residual = 0.000874311, No Iterations 1
DILUPBiCGStab:  Solving for k, Initial residual = 0.0395263, Final residual = 0.0027654, No Iterations 1
ExecutionTime = 4.10916 s  ClockTime = 4 s

Time = 25s

DILUPBiCGStab:  Solving for Ux, Initial residual = 0.0102671, Final residual = 0.000340902, No Iterations 2
DILUPBiCGStab:  Solving for Uy, Initial residual = 0.00589924, Final residual = 0.00022605, No Iterations 2
DILUPBiCGStab:  Solving for Uz, Initial residual = 0.0663517, Final residual = 0.00236624, No Iterations 2
DILUPBiCGStab:  Solving for h, Initial residual = 0.0291634, Final residual = 0.00161591, No Iterations 1
GAMG:  Solving for p, Initial residual = 0.0203882, Final residual = 0.00134303, No Iterations 2
time step continuity errors : sum local = 28.1414, global = -15.1078, cumulative = -703.854
DILUPBiCGStab:  Solving for epsilon, Initial residual = 0.014255, Final residual = 0.000860739, No Iterations 1
DILUPBiCGStab:  Solving for k, Initial residual = 0.0387588, Final residual = 0.00271996, No Iterations 1
ExecutionTime = 4.24031 s  ClockTime = 4 s

Time = 26s

DILUPBiCGStab:  Solving for Ux, Initial residual = 0.010174, Final residual = 0.000334297, No Iterations 2
DILUPBiCGStab:  Solving for Uy, Initial residual = 0.0054127, Final residual = 0.000208265, No Iterations 2
DILUPBiCGStab:  Solving for Uz, Initial residual = 0.059834, Final residual = 0.00210905, No Iterations 2
DILUPBiCGStab:  Solving for h, Initial residual = 0.0287631, Final residual = 0.00157191, No Iterations 1
GAMG:  Solving for p, Initial residual = 0.0193356, Final residual = 0.0011797, No Iterations 2
time step continuity errors : sum local = 26.4296, global = -15.0758, cumulative = -718.929
limitPressure: max 220194
DILUPBiCGStab:  Solving for epsilon, Initial residual = 0.0139162, Final residual = 0.000847277, No Iterations 1
DILUPBiCGStab:  Solving for k, Initial residual = 0.0380651, Final residual = 0.00267951, No Iterations 1
ExecutionTime = 4.37135 s  ClockTime = 4 s

Time = 27s

DILUPBiCGStab:  Solving for Ux, Initial residual = 0.0100716, Final residual = 0.000322227, No Iterations 2
DILUPBiCGStab:  Solving for Uy, Initial residual = 0.00507707, Final residual = 0.000194402, No Iterations 2
DILUPBiCGStab:  Solving for Uz, Initial residual = 0.0547109, Final residual = 0.00194361, No Iterations 2
DILUPBiCGStab:  Solving for h, Initial residual = 0.028512, Final residual = 0.00153905, No Iterations 1
GAMG:  Solving for p, Initial residual = 0.0183821, Final residual = 0.00102801, No Iterations 2
time step continuity errors : sum local = 24.3627, global = -14.5835, cumulative = -733.513
limitPressure: max 221284
DILUPBiCGStab:  Solving for epsilon, Initial residual = 0.0135721, Final residual = 0.000831156, No Iterations 1
DILUPBiCGStab:  Solving for k, Initial residual = 0.0373918, Final residual = 0.00263671, No Iterations 1
ExecutionTime = 4.50353 s  ClockTime = 4 s

Time = 28s

DILUPBiCGStab:  Solving for Ux, Initial residual = 0.0100587, Final residual = 0.000308536, No Iterations 2
DILUPBiCGStab:  Solving for Uy, Initial residual = 0.00487431, Final residual = 0.000185501, No Iterations 2
DILUPBiCGStab:  Solving for Uz, Initial residual = 0.051446, Final residual = 0.00186699, No Iterations 2
DILUPBiCGStab:  Solving for h, Initial residual = 0.0283863, Final residual = 0.00151292, No Iterations 1
GAMG:  Solving for p, Initial residual = 0.0177385, Final residual = 0.000905387, No Iterations 2
time step continuity errors : sum local = 22.0811, global = -13.7019, cumulative = -747.215
limitPressure: max 221868
DILUPBiCGStab:  Solving for epsilon, Initial residual = 0.0132083, Final residual = 0.000811417, No Iterations 1
DILUPBiCGStab:  Solving for k, Initial residual = 0.0366985, Final residual = 0.00259306, No Iterations 1
ExecutionTime = 4.63517 s  ClockTime = 5 s

Time = 29s

DILUPBiCGStab:  Solving for Ux, Initial residual = 0.0101445, Final residual = 0.000298934, No Iterations 2
DILUPBiCGStab:  Solving for Uy, Initial residual = 0.00475403, Final residual = 0.000181939, No Iterations 2
DILUPBiCGStab:  Solving for Uz, Initial residual = 0.0492329, Final residual = 0.001795, No Iterations 2
DILUPBiCGStab:  Solving for h, Initial residual = 0.0283651, Final residual = 0.00148984, No Iterations 1
GAMG:  Solving for p, Initial residual = 0.0176013, Final residual = 0.000817654, No Iterations 2
time step continuity errors : sum local = 19.7212, global = -12.5468, cumulative = -759.762
limitPressure: max 222429
DILUPBiCGStab:  Solving for epsilon, Initial residual = 0.0128233, Final residual = 0.000788303, No Iterations 1
DILUPBiCGStab:  Solving for k, Initial residual = 0.0359752, Final residual = 0.00254667, No Iterations 1
ExecutionTime = 4.76669 s  ClockTime = 5 s

Time = 30s

DILUPBiCGStab:  Solving for Ux, Initial residual = 0.010245, Final residual = 0.000293059, No Iterations 2
DILUPBiCGStab:  Solving for Uy, Initial residual = 0.0046821, Final residual = 0.000182185, No Iterations 2
DILUPBiCGStab:  Solving for Uz, Initial residual = 0.0475487, Final residual = 0.00173214, No Iterations 2
DILUPBiCGStab:  Solving for h, Initial residual = 0.0284344, Final residual = 0.00146782, No Iterations 1
GAMG:  Solving for p, Initial residual = 0.0180653, Final residual = 0.000749792, No Iterations 2
time step continuity errors : sum local = 17.369, global = -11.2242, cumulative = -770.986
limitPressure: max 222949
DILUPBiCGStab:  Solving for epsilon, Initial residual = 0.0124181, Final residual = 0.000761789, No Iterations 1
DILUPBiCGStab:  Solving for k, Initial residual = 0.0352072, Final residual = 0.00249731, No Iterations 1
ExecutionTime = 4.89945 s  ClockTime = 5 s

Time = 31s

DILUPBiCGStab:  Solving for Ux, Initial residual = 0.0103434, Final residual = 0.000284971, No Iterations 2
DILUPBiCGStab:  Solving for Uy, Initial residual = 0.00464067, Final residual = 0.000184902, No Iterations 2
DILUPBiCGStab:  Solving for Uz, Initial residual = 0.0463545, Final residual = 0.00173306, No Iterations 2
DILUPBiCGStab:  Solving for h, Initial residual = 0.0285855, Final residual = 0.00144361, No Iterations 1
GAMG:  Solving for p, Initial residual = 0.0192783, Final residual = 0.00178932, No Iterations 1
time step continuity errors : sum local = 22.6246, global = -9.85562, cumulative = -780.841
limitPressure: max 223051
DILUPBiCGStab:  Solving for epsilon, Initial residual = 0.0120101, Final residual = 0.000732738, No Iterations 1
DILUPBiCGStab:  Solving for k, Initial residual = 0.0344584, Final residual = 0.00244836, No Iterations 1
ExecutionTime = 5.03187 s  ClockTime = 5 s

Time = 32s

DILUPBiCGStab:  Solving for Ux, Initial residual = 0.0102404, Final residual = 0.00026469, No Iterations 2
DILUPBiCGStab:  Solving for Uy, Initial residual = 0.00456467, Final residual = 0.000183552, No Iterations 2
DILUPBiCGStab:  Solving for Uz, Initial residual = 0.0433287, Final residual = 0.00168058, No Iterations 2
DILUPBiCGStab:  Solving for h, Initial residual = 0.0288062, Final residual = 0.00141134, No Iterations 1
GAMG:  Solving for p, Initial residual = 0.0215482, Final residual = 0.00208273, No Iterations 1
time step continuity errors : sum local = 23.1894, global = -8.46826, cumulative = -789.31
limitPressure: max 223448
DILUPBiCGStab:  Solving for epsilon, Initial residual = 0.0115725, Final residual = 0.000699674, No Iterations 1
DILUPBiCGStab:  Solving for k, Initial residual = 0.0335792, Final residual = 0.00239483, No Iterations 1
ExecutionTime = 5.15681 s  ClockTime = 5 s

Time = 33s

DILUPBiCGStab:  Solving for Ux, Initial residual = 0.0103378, Final residual = 0.000265842, No Iterations 2
DILUPBiCGStab:  Solving for Uy, Initial residual = 0.00455281, Final residual = 0.000188146, No Iterations 2
DILUPBiCGStab:  Solving for Uz, Initial residual = 0.0428621, Final residual = 0.00167131, No Iterations 2
DILUPBiCGStab:  Solving for h, Initial residual = 0.0290969, Final residual = 0.00138733, No Iterations 1
GAMG:  Solving for p, Initial residual = 0.0249392, Final residual = 0.00219392, No Iterations 1
time step continuity errors : sum local = 22.4612, global = -7.10855, cumulative = -796.418
limitPressure: max 223737
DILUPBiCGStab:  Solving for epsilon, Initial residual = 0.0110711, Final residual = 0.000663142, No Iterations 1
DILUPBiCGStab:  Solving for k, Initial residual = 0.0326013, Final residual = 0.00234223, No Iterations 1
ExecutionTime = 5.28157 s  ClockTime = 5 s

Time = 34s

DILUPBiCGStab:  Solving for Ux, Initial residual = 0.0104593, Final residual = 0.000271457, No Iterations 2
DILUPBiCGStab:  Solving for Uy, Initial residual = 0.00459416, Final residual = 0.000198881, No Iterations 2
DILUPBiCGStab:  Solving for Uz, Initial residual = 0.0426655, Final residual = 0.00169827, No Iterations 2
DILUPBiCGStab:  Solving for h, Initial residual = 0.0294491, Final residual = 0.00136678, No Iterations 1
GAMG:  Solving for p, Initial residual = 0.0304376, Final residual = 0.00231834, No Iterations 1
time step continuity errors : sum local = 21.9777, global = -5.95067, cumulative = -802.369
limitPressure: max 223944
DILUPBiCGStab:  Solving for epsilon, Initial residual = 0.0105165, Final residual = 0.000625332, No Iterations 1
DILUPBiCGStab:  Solving for k, Initial residual = 0.0315331, Final residual = 0.00228475, No Iterations 1
ExecutionTime = 5.40623 s  ClockTime = 5 s

Time = 35s

DILUPBiCGStab:  Solving for Ux, Initial residual = 0.0105619, Final residual = 0.000277496, No Iterations 2
DILUPBiCGStab:  Solving for Uy, Initial residual = 0.0047272, Final residual = 0.000217637, No Iterations 2
DILUPBiCGStab:  Solving for Uz, Initial residual = 0.0425292, Final residual = 0.00169903, No Iterations 2
DILUPBiCGStab:  Solving for h, Initial residual = 0.0298614, Final residual = 0.00134509, No Iterations 1
GAMG:  Solving for p, Initial residual = 0.0367064, Final residual = 0.00252337, No Iterations 1
time step continuity errors : sum local = 22.454, global = -5.0555, cumulative = -807.424
limitPressure: max 224054
DILUPBiCGStab:  Solving for epsilon, Initial residual = 0.00992422, Final residual = 0.000586596, No Iterations 1
DILUPBiCGStab:  Solving for k, Initial residual = 0.0303891, Final residual = 0.00222117, No Iterations 1
ExecutionTime = 5.53116 s  ClockTime = 6 s

Time = 36s

DILUPBiCGStab:  Solving for Ux, Initial residual = 0.0105946, Final residual = 0.00104768, No Iterations 1
DILUPBiCGStab:  Solving for Uy, Initial residual = 0.0049146, Final residual = 0.000244319, No Iterations 2
DILUPBiCGStab:  Solving for Uz, Initial residual = 0.0413213, Final residual = 0.00164775, No Iterations 2
DILUPBiCGStab:  Solving for h, Initial residual = 0.030339, Final residual = 0.0013401, No Iterations 1
GAMG:  Solving for p, Initial residual = 0.0415379, Final residual = 0.00284831, No Iterations 1
time step continuity errors : sum local = 23.7559, global = -4.49705, cumulative = -811.921
limitPressure: max 223987
DILUPBiCGStab:  Solving for epsilon, Initial residual = 0.00930563, Final residual = 0.000547482, No Iterations 1
DILUPBiCGStab:  Solving for k, Initial residual = 0.0291674, Final residual = 0.00213828, No Iterations 1
ExecutionTime = 5.65372 s  ClockTime = 6 s

Time = 37s

DILUPBiCGStab:  Solving for Ux, Initial residual = 0.0105286, Final residual = 0.00101848, No Iterations 1
DILUPBiCGStab:  Solving for Uy, Initial residual = 0.00508532, Final residual = 0.000302634, No Iterations 2
DILUPBiCGStab:  Solving for Uz, Initial residual = 0.0400057, Final residual = 0.00165173, No Iterations 2
DILUPBiCGStab:  Solving for h, Initial residual = 0.0308603, Final residual = 0.00131655, No Iterations 1
GAMG:  Solving for p, Initial residual = 0.0445277, Final residual = 0.00320189, No Iterations 1
time step continuity errors : sum local = 25.553, global = -4.24589, cumulative = -816.167
limitPressure: max 224038
DILUPBiCGStab:  Solving for epsilon, Initial residual = 0.00870919, Final residual = 0.000509551, No Iterations 1
DILUPBiCGStab:  Solving for k, Initial residual = 0.0279308, Final residual = 0.0020452, No Iterations 1
ExecutionTime = 5.77701 s  ClockTime = 6 s

Time = 38s

DILUPBiCGStab:  Solving for Ux, Initial residual = 0.0104495, Final residual = 0.00098644, No Iterations 1
DILUPBiCGStab:  Solving for Uy, Initial residual = 0.00520599, Final residual = 0.000418239, No Iterations 2
DILUPBiCGStab:  Solving for Uz, Initial residual = 0.0382233, Final residual = 0.00166221, No Iterations 2
DILUPBiCGStab:  Solving for h, Initial residual = 0.0314583, Final residual = 0.00131109, No Iterations 1
GAMG:  Solving for p, Initial residual = 0.0462439, Final residual = 0.00353911, No Iterations 1
time step continuity errors : sum local = 27.3928, global = -4.21588, cumulative = -820.383
limitPressure: max 224184
DILUPBiCGStab:  Solving for epsilon, Initial residual = 0.0081059, Final residual = 0.000470744, No Iterations 1
DILUPBiCGStab:  Solving for k, Initial residual = 0.026677, Final residual = 0.00195116, No Iterations 1
ExecutionTime = 5.90034 s  ClockTime = 6 s

Time = 39s

DILUPBiCGStab:  Solving for Ux, Initial residual = 0.0103257, Final residual = 0.000947027, No Iterations 1
DILUPBiCGStab:  Solving for Uy, Initial residual = 0.0053026, Final residual = 0.000459137, No Iterations 2
DILUPBiCGStab:  Solving for Uz, Initial residual = 0.0366127, Final residual = 0.00173569, No Iterations 2
DILUPBiCGStab:  Solving for h, Initial residual = 0.0321146, Final residual = 0.00131699, No Iterations 1
GAMG:  Solving for p, Initial residual = 0.0472466, Final residual = 0.00385256, No Iterations 1
time step continuity errors : sum local = 29.1981, global = -4.28899, cumulative = -824.672
limitPressure: max 224387
DILUPBiCGStab:  Solving for epsilon, Initial residual = 0.00748799, Final residual = 0.000431195, No Iterations 1
DILUPBiCGStab:  Solving for k, Initial residual = 0.0253974, Final residual = 0.00185336, No Iterations 1
ExecutionTime = 6.02537 s  ClockTime = 6 s

Time = 40s

DILUPBiCGStab:  Solving for Ux, Initial residual = 0.0101433, Final residual = 0.000902941, No Iterations 1
DILUPBiCGStab:  Solving for Uy, Initial residual = 0.00535754, Final residual = 0.000436766, No Iterations 3
DILUPBiCGStab:  Solving for Uz, Initial residual = 0.0355934, Final residual = 0.00176019, No Iterations 2
DILUPBiCGStab:  Solving for h, Initial residual = 0.032801, Final residual = 0.00131925, No Iterations 1
GAMG:  Solving for p, Initial residual = 0.047826, Final residual = 0.0042211, No Iterations 1
time step continuity errors : sum local = 31.5523, global = -4.33653, cumulative = -829.009
limitPressure: max 224614
DILUPBiCGStab:  Solving for epsilon, Initial residual = 0.00687908, Final residual = 0.000391969, No Iterations 1
DILUPBiCGStab:  Solving for k, Initial residual = 0.0241118, Final residual = 0.00175054, No Iterations 1
ExecutionTime = 6.15273 s  ClockTime = 6 s

Time = 41s

DILUPBiCGStab:  Solving for Ux, Initial residual = 0.00993083, Final residual = 0.000858889, No Iterations 1
DILUPBiCGStab:  Solving for Uy, Initial residual = 0.00538021, Final residual = 0.000281757, No Iterations 2
DILUPBiCGStab:  Solving for Uz, Initial residual = 0.03484, Final residual = 0.00174796, No Iterations 2
DILUPBiCGStab:  Solving for h, Initial residual = 0.0335033, Final residual = 0.00131859, No Iterations 1
GAMG:  Solving for p, Initial residual = 0.048471, Final residual = 0.00452045, No Iterations 1
time step continuity errors : sum local = 33.3316, global = -4.23883, cumulative = -833.248
limitPressure: max 224635
DILUPBiCGStab:  Solving for epsilon, Initial residual = 0.00631073, Final residual = 0.00035193, No Iterations 1
DILUPBiCGStab:  Solving for k, Initial residual = 0.0228789, Final residual = 0.00164193, No Iterations 1
ExecutionTime = 6.27573 s  ClockTime = 6 s

Time = 42s

DILUPBiCGStab:  Solving for Ux, Initial residual = 0.00965206, Final residual = 0.000819179, No Iterations 1
DILUPBiCGStab:  Solving for Uy, Initial residual = 0.0053091, Final residual = 0.00024761, No Iterations 2
DILUPBiCGStab:  Solving for Uz, Initial residual = 0.0337529, Final residual = 0.00173462, No Iterations 2
DILUPBiCGStab:  Solving for h, Initial residual = 0.0341949, Final residual = 0.00131613, No Iterations 1
GAMG:  Solving for p, Initial residual = 0.0486687, Final residual = 0.00466764, No Iterations 1
time step continuity errors : sum local = 34.074, global = -4.09877, cumulative = -837.346
limitPressure: max 224688
DILUPBiCGStab:  Solving for epsilon, Initial residual = 0.0057393, Final residual = 0.000312999, No Iterations 1
DILUPBiCGStab:  Solving for k, Initial residual = 0.0216142, Final residual = 0.00152523, No Iterations 1
ExecutionTime = 6.40062 s  ClockTime = 6 s

Time = 43s

DILUPBiCGStab:  Solving for Ux, Initial residual = 0.00931787, Final residual = 0.000782255, No Iterations 1
DILUPBiCGStab:  Solving for Uy, Initial residual = 0.00523571, Final residual = 1.58122e-05, No Iterations 4
DILUPBiCGStab:  Solving for Uz, Initial residual = 0.0329126, Final residual = 0.00219413, No Iterations 2
DILUPBiCGStab:  Solving for h, Initial residual = 0.0348693, Final residual = 0.00131499, No Iterations 1
GAMG:  Solving for p, Initial residual = 0.0484062, Final residual = 0.00464487, No Iterations 1
time step continuity errors : sum local = 33.7886, global = -3.97913, cumulative = -841.325
limitPressure: max 224716
DILUPBiCGStab:  Solving for epsilon, Initial residual = 0.00521408, Final residual = 0.000278598, No Iterations 1
DILUPBiCGStab:  Solving for k, Initial residual = 0.0203975, Final residual = 0.00140455, No Iterations 1
ExecutionTime = 6.52977 s  ClockTime = 7 s

Time = 44s

DILUPBiCGStab:  Solving for Ux, Initial residual = 0.00897349, Final residual = 0.00074688, No Iterations 1
DILUPBiCGStab:  Solving for Uy, Initial residual = 0.00513952, Final residual = 0.000385546, No Iterations 3
DILUPBiCGStab:  Solving for Uz, Initial residual = 0.0320586, Final residual = 0.000748558, No Iterations 3
DILUPBiCGStab:  Solving for h, Initial residual = 0.0355139, Final residual = 0.00131478, No Iterations 1
GAMG:  Solving for p, Initial residual = 0.0481282, Final residual = 0.0045684, No Iterations 1
time step continuity errors : sum local = 33.1227, global = -3.85172, cumulative = -845.177
limitPressure: max 224664
DILUPBiCGStab:  Solving for epsilon, Initial residual = 0.00475309, Final residual = 0.000248739, No Iterations 1
DILUPBiCGStab:  Solving for k, Initial residual = 0.0192791, Final residual = 0.00128487, No Iterations 1
ExecutionTime = 6.66246 s  ClockTime = 7 s

Time = 45s

DILUPBiCGStab:  Solving for Ux, Initial residual = 0.00862035, Final residual = 0.000713753, No Iterations 1
DILUPBiCGStab:  Solving for Uy, Initial residual = 0.00505161, Final residual = 0.000446257, No Iterations 2
DILUPBiCGStab:  Solving for Uz, Initial residual = 0.0309976, Final residual = 0.00132881, No Iterations 2
DILUPBiCGStab:  Solving for h, Initial residual = 0.0360994, Final residual = 0.00131246, No Iterations 1
GAMG:  Solving for p, Initial residual = 0.0477785, Final residual = 0.00449147, No Iterations 1
time step continuity errors : sum local = 32.4571, global = -3.74114, cumulative = -848.918
limitPressure: max 224618
DILUPBiCGStab:  Solving for epsilon, Initial residual = 0.00433526, Final residual = 0.000222699, No Iterations 1
DILUPBiCGStab:  Solving for k, Initial residual = 0.0182339, Final residual = 0.00116857, No Iterations 1
ExecutionTime = 6.78576 s  ClockTime = 7 s

Time = 46s

DILUPBiCGStab:  Solving for Ux, Initial residual = 0.00825619, Final residual = 0.000682256, No Iterations 1
DILUPBiCGStab:  Solving for Uy, Initial residual = 0.00491024, Final residual = 0.000106011, No Iterations 3
DILUPBiCGStab:  Solving for Uz, Initial residual = 0.0303108, Final residual = 0.000261243, No Iterations 3
DILUPBiCGStab:  Solving for h, Initial residual = 0.0365969, Final residual = 0.00129229, No Iterations 1
GAMG:  Solving for p, Initial residual = 0.0472522, Final residual = 0.00446788, No Iterations 1
time step continuity errors : sum local = 32.1801, global = -3.64497, cumulative = -852.563
limitPressure: max 224677
DILUPBiCGStab:  Solving for epsilon, Initial residual = 0.00394445, Final residual = 0.000200128, No Iterations 1
DILUPBiCGStab:  Solving for k, Initial residual = 0.0171776, Final residual = 0.00105519, No Iterations 1
ExecutionTime = 6.9147 s  ClockTime = 7 s

Time = 47s

DILUPBiCGStab:  Solving for Ux, Initial residual = 0.00788361, Final residual = 0.000649469, No Iterations 1
DILUPBiCGStab:  Solving for Uy, Initial residual = 0.00482256, Final residual = 0.00027512, No Iterations 2
DILUPBiCGStab:  Solving for Uz, Initial residual = 0.0294984, Final residual = 0.00254786, No Iterations 2
DILUPBiCGStab:  Solving for h, Initial residual = 0.0369772, Final residual = 0.00127002, No Iterations 1
GAMG:  Solving for p, Initial residual = 0.0467103, Final residual = 0.00441853, No Iterations 1
time step continuity errors : sum local = 31.6903, global = -3.53246, cumulative = -856.096
limitPressure: max 224653
DILUPBiCGStab:  Solving for epsilon, Initial residual = 0.00360704, Final residual = 0.000181495, No Iterations 1
DILUPBiCGStab:  Solving for k, Initial residual = 0.016191, Final residual = 0.000957625, No Iterations 1
ExecutionTime = 7.03849 s  ClockTime = 7 s

Time = 48s

DILUPBiCGStab:  Solving for Ux, Initial residual = 0.00750742, Final residual = 0.000618389, No Iterations 1
DILUPBiCGStab:  Solving for Uy, Initial residual = 0.00475493, Final residual = 0.00027828, No Iterations 2
DILUPBiCGStab:  Solving for Uz, Initial residual = 0.0287143, Final residual = 0.00254257, No Iterations 2
DILUPBiCGStab:  Solving for h, Initial residual = 0.0371934, Final residual = 0.00124239, No Iterations 1
GAMG:  Solving for p, Initial residual = 0.0461542, Final residual = 0.00434632, No Iterations 1
time step continuity errors : sum local = 30.9956, global = -3.39547, cumulative = -859.491
limitPressure: max 224583
DILUPBiCGStab:  Solving for epsilon, Initial residual = 0.00330372, Final residual = 0.000165302, No Iterations 1
DILUPBiCGStab:  Solving for k, Initial residual = 0.0152228, Final residual = 0.000874383, No Iterations 1
ExecutionTime = 7.16214 s  ClockTime = 7 s

Time = 49s

DILUPBiCGStab:  Solving for Ux, Initial residual = 0.00712128, Final residual = 0.000587164, No Iterations 1
DILUPBiCGStab:  Solving for Uy, Initial residual = 0.00467441, Final residual = 0.000267762, No Iterations 2
DILUPBiCGStab:  Solving for Uz, Initial residual = 0.0279724, Final residual = 0.00235056, No Iterations 2
DILUPBiCGStab:  Solving for h, Initial residual = 0.037195, Final residual = 0.00120974, No Iterations 1
GAMG:  Solving for p, Initial residual = 0.0454853, Final residual = 0.00427797, No Iterations 1
time step continuity errors : sum local = 30.32, global = -3.23292, cumulative = -862.724
limitPressure: max 224557
DILUPBiCGStab:  Solving for epsilon, Initial residual = 0.00303041, Final residual = 0.000150581, No Iterations 1
DILUPBiCGStab:  Solving for k, Initial residual = 0.0142807, Final residual = 0.000803624, No Iterations 1
ExecutionTime = 7.28499 s  ClockTime = 7 s

Time = 50s

DILUPBiCGStab:  Solving for Ux, Initial residual = 0.00672506, Final residual = 0.000557172, No Iterations 1
DILUPBiCGStab:  Solving for Uy, Initial residual = 0.00461266, Final residual = 0.000265991, No Iterations 2
DILUPBiCGStab:  Solving for Uz, Initial residual = 0.0271073, Final residual = 0.00215912, No Iterations 2
DILUPBiCGStab:  Solving for h, Initial residual = 0.0369588, Final residual = 0.00117042, No Iterations 1
GAMG:  Solving for p, Initial residual = 0.044834, Final residual = 0.0041671, No Iterations 1
time step continuity errors : sum local = 29.3419, global = -3.01973, cumulative = -865.744
limitPressure: max 224487
DILUPBiCGStab:  Solving for epsilon, Initial residual = 0.00278003, Final residual = 0.000137454, No Iterations 1
DILUPBiCGStab:  Solving for k, Initial residual = 0.01337, Final residual = 0.000747246, No Iterations 1
ExecutionTime = 7.40757 s  ClockTime = 7 s

Time = 51s

DILUPBiCGStab:  Solving for Ux, Initial residual = 0.00632543, Final residual = 0.000527102, No Iterations 1
DILUPBiCGStab:  Solving for Uy, Initial residual = 0.00453284, Final residual = 0.000262165, No Iterations 2
DILUPBiCGStab:  Solving for Uz, Initial residual = 0.0261581, Final residual = 0.000188421, No Iterations 3
DILUPBiCGStab:  Solving for h, Initial residual = 0.0364354, Final residual = 0.0011257, No Iterations 1
GAMG:  Solving for p, Initial residual = 0.0441327, Final residual = 0.00406399, No Iterations 1
time step continuity errors : sum local = 28.3944, global = -2.75837, cumulative = -868.502
limitPressure: max 224430
DILUPBiCGStab:  Solving for epsilon, Initial residual = 0.00255248, Final residual = 0.00012534, No Iterations 1
DILUPBiCGStab:  Solving for k, Initial residual = 0.0124929, Final residual = 0.000698385, No Iterations 1
ExecutionTime = 7.53351 s  ClockTime = 8 s

Time = 52s

DILUPBiCGStab:  Solving for Ux, Initial residual = 0.00592265, Final residual = 0.000498682, No Iterations 1
DILUPBiCGStab:  Solving for Uy, Initial residual = 0.00445164, Final residual = 0.000262347, No Iterations 2
DILUPBiCGStab:  Solving for Uz, Initial residual = 0.0251782, Final residual = 0.00129639, No Iterations 2
DILUPBiCGStab:  Solving for h, Initial residual = 0.035604, Final residual = 0.00107545, No Iterations 1
GAMG:  Solving for p, Initial residual = 0.0434067, Final residual = 0.00392939, No Iterations 1
time step continuity errors : sum local = 27.2435, global = -2.45774, cumulative = -870.96
limitPressure: max 224357
DILUPBiCGStab:  Solving for epsilon, Initial residual = 0.0023453, Final residual = 0.000114359, No Iterations 1
DILUPBiCGStab:  Solving for k, Initial residual = 0.0116612, Final residual = 0.000655365, No Iterations 1
ExecutionTime = 7.65855 s  ClockTime = 8 s

Time = 53s

DILUPBiCGStab:  Solving for Ux, Initial residual = 0.00552307, Final residual = 0.000470477, No Iterations 1
DILUPBiCGStab:  Solving for Uy, Initial residual = 0.00436109, Final residual = 0.000260831, No Iterations 2
DILUPBiCGStab:  Solving for Uz, Initial residual = 0.0243905, Final residual = 0.00120613, No Iterations 2
DILUPBiCGStab:  Solving for h, Initial residual = 0.0344481, Final residual = 0.00102096, No Iterations 1
GAMG:  Solving for p, Initial residual = 0.0426764, Final residual = 0.00378731, No Iterations 1
time step continuity errors : sum local = 26.0423, global = -2.13023, cumulative = -873.09
limitPressure: max 224276
DILUPBiCGStab:  Solving for epsilon, Initial residual = 0.00215673, Final residual = 0.000104134, No Iterations 1
DILUPBiCGStab:  Solving for k, Initial residual = 0.0108778, Final residual = 0.00061427, No Iterations 1
ExecutionTime = 7.78428 s  ClockTime = 8 s

Time = 54s

DILUPBiCGStab:  Solving for Ux, Initial residual = 0.00512949, Final residual = 0.000443077, No Iterations 1
DILUPBiCGStab:  Solving for Uy, Initial residual = 0.00426542, Final residual = 0.000258769, No Iterations 2
DILUPBiCGStab:  Solving for Uz, Initial residual = 0.0236644, Final residual = 0.00107911, No Iterations 2
DILUPBiCGStab:  Solving for h, Initial residual = 0.0329815, Final residual = 0.000963924, No Iterations 1
GAMG:  Solving for p, Initial residual = 0.0419493, Final residual = 0.00363855, No Iterations 1
time step continuity errors : sum local = 24.803, global = -1.78934, cumulative = -874.88
limitPressure: max 224186
DILUPBiCGStab:  Solving for epsilon, Initial residual = 0.0019855, Final residual = 9.45927e-05, No Iterations 1
DILUPBiCGStab:  Solving for k, Initial residual = 0.0101552, Final residual = 0.000573655, No Iterations 1
ExecutionTime = 7.90908 s  ClockTime = 8 s

Time = 55s

DILUPBiCGStab:  Solving for Ux, Initial residual = 0.00474801, Final residual = 0.000416224, No Iterations 1
DILUPBiCGStab:  Solving for Uy, Initial residual = 0.00416831, Final residual = 0.00025685, No Iterations 2
DILUPBiCGStab:  Solving for Uz, Initial residual = 0.0229171, Final residual = 0.000969533, No Iterations 2
DILUPBiCGStab:  Solving for h, Initial residual = 0.0312338, Final residual = 0.000906253, No Iterations 1
GAMG:  Solving for p, Initial residual = 0.0412247, Final residual = 0.00348431, No Iterations 1
time step continuity errors : sum local = 23.5416, global = -1.44612, cumulative = -876.326
limitPressure: max 224086
DILUPBiCGStab:  Solving for epsilon, Initial residual = 0.00183113, Final residual = 8.58472e-05, No Iterations 1
DILUPBiCGStab:  Solving for k, Initial residual = 0.00950117, Final residual = 0.000533326, No Iterations 1
ExecutionTime = 8.03394 s  ClockTime = 8 s

Time = 56s

DILUPBiCGStab:  Solving for Ux, Initial residual = 0.00438355, Final residual = 0.000390242, No Iterations 1
DILUPBiCGStab:  Solving for Uy, Initial residual = 0.0040639, Final residual = 0.000254659, No Iterations 2
DILUPBiCGStab:  Solving for Uz, Initial residual = 0.0221494, Final residual = 0.000867195, No Iterations 2
DILUPBiCGStab:  Solving for h, Initial residual = 0.0292507, Final residual = 0.000849471, No Iterations 1
GAMG:  Solving for p, Initial residual = 0.0404855, Final residual = 0.00332453, No Iterations 1
time step continuity errors : sum local = 22.4191, global = -1.10804, cumulative = -877.434
limitPressure: max 223974
DILUPBiCGStab:  Solving for epsilon, Initial residual = 0.00169124, Final residual = 7.78302e-05, No Iterations 1
DILUPBiCGStab:  Solving for k, Initial residual = 0.0089132, Final residual = 0.0004938, No Iterations 1
ExecutionTime = 8.15884 s  ClockTime = 8 s

Time = 57s

DILUPBiCGStab:  Solving for Ux, Initial residual = 0.00404458, Final residual = 0.000365091, No Iterations 1
DILUPBiCGStab:  Solving for Uy, Initial residual = 0.00395458, Final residual = 0.000251461, No Iterations 2
DILUPBiCGStab:  Solving for Uz, Initial residual = 0.021336, Final residual = 0.00200883, No Iterations 2
DILUPBiCGStab:  Solving for h, Initial residual = 0.027092, Final residual = 0.000795131, No Iterations 1
GAMG:  Solving for p, Initial residual = 0.0397311, Final residual = 0.0031501, No Iterations 1
time step continuity errors : sum local = 21.3132, global = -0.779628, cumulative = -878.213
limitPressure: max 223846
DILUPBiCGStab:  Solving for epsilon, Initial residual = 0.00156263, Final residual = 7.05684e-05, No Iterations 1
DILUPBiCGStab:  Solving for k, Initial residual = 0.00838291, Final residual = 0.000456481, No Iterations 1
ExecutionTime = 8.28216 s  ClockTime = 8 s

Time = 58s

DILUPBiCGStab:  Solving for Ux, Initial residual = 0.00372709, Final residual = 0.000340724, No Iterations 1
DILUPBiCGStab:  Solving for Uy, Initial residual = 0.00383101, Final residual = 0.000246043, No Iterations 2
DILUPBiCGStab:  Solving for Uz, Initial residual = 0.0206021, Final residual = 0.000163716, No Iterations 3
DILUPBiCGStab:  Solving for h, Initial residual = 0.0248298, Final residual = 0.000744587, No Iterations 1
GAMG:  Solving for p, Initial residual = 0.0389531, Final residual = 0.00299504, No Iterations 1
time step continuity errors : sum local = 20.3205, global = -0.463727, cumulative = -878.677
limitPressure: max 223726
DILUPBiCGStab:  Solving for epsilon, Initial residual = 0.00144506, Final residual = 6.40757e-05, No Iterations 1
DILUPBiCGStab:  Solving for k, Initial residual = 0.00789059, Final residual = 0.000420442, No Iterations 1
ExecutionTime = 8.40882 s  ClockTime = 8 s

Time = 59s

DILUPBiCGStab:  Solving for Ux, Initial residual = 0.00343282, Final residual = 0.000318266, No Iterations 1
DILUPBiCGStab:  Solving for Uy, Initial residual = 0.00369649, Final residual = 0.000239006, No Iterations 2
DILUPBiCGStab:  Solving for Uz, Initial residual = 0.0196983, Final residual = 0.00188112, No Iterations 2
DILUPBiCGStab:  Solving for h, Initial residual = 0.0225482, Final residual = 0.000697077, No Iterations 1
GAMG:  Solving for p, Initial residual = 0.0381392, Final residual = 0.00280771, No Iterations 1
time step continuity errors : sum local = 19.1248, global = -0.164368, cumulative = -878.841
limitPressure: max 223582
DILUPBiCGStab:  Solving for epsilon, Initial residual = 0.00133597, Final residual = 5.8328e-05, No Iterations 1
DILUPBiCGStab:  Solving for k, Initial residual = 0.00743195, Final residual = 0.000388567, No Iterations 1
ExecutionTime = 8.53214 s  ClockTime = 9 s

Time = 60s

DILUPBiCGStab:  Solving for Ux, Initial residual = 0.00316568, Final residual = 0.000297061, No Iterations 1
DILUPBiCGStab:  Solving for Uy, Initial residual = 0.00354976, Final residual = 0.000230335, No Iterations 2
DILUPBiCGStab:  Solving for Uz, Initial residual = 0.0189111, Final residual = 0.00173971, No Iterations 2
DILUPBiCGStab:  Solving for h, Initial residual = 0.0203134, Final residual = 0.000654417, No Iterations 1
GAMG:  Solving for p, Initial residual = 0.0373114, Final residual = 0.00266047, No Iterations 1
time step continuity errors : sum local = 18.1639, global = 0.115068, cumulative = -878.726
limitPressure: max 223456
DILUPBiCGStab:  Solving for epsilon, Initial residual = 0.00123932, Final residual = 5.35628e-05, No Iterations 1
DILUPBiCGStab:  Solving for k, Initial residual = 0.00700505, Final residual = 0.000360202, No Iterations 1
ExecutionTime = 8.65642 s  ClockTime = 9 s

Time = 61s

DILUPBiCGStab:  Solving for Ux, Initial residual = 0.00292582, Final residual = 0.000278191, No Iterations 1
DILUPBiCGStab:  Solving for Uy, Initial residual = 0.00339977, Final residual = 0.000221593, No Iterations 2
DILUPBiCGStab:  Solving for Uz, Initial residual = 0.0178236, Final residual = 0.000739493, No Iterations 2
DILUPBiCGStab:  Solving for h, Initial residual = 0.0181949, Final residual = 0.000613365, No Iterations 1
GAMG:  Solving for p, Initial residual = 0.0364159, Final residual = 0.00245679, No Iterations 1
time step continuity errors : sum local = 16.8442, global = 0.36897, cumulative = -878.357
limitPressure: max 223302
DILUPBiCGStab:  Solving for epsilon, Initial residual = 0.00115288, Final residual = 4.95457e-05, No Iterations 1
DILUPBiCGStab:  Solving for k, Initial residual = 0.00659955, Final residual = 0.00033378, No Iterations 1
ExecutionTime = 8.78011 s  ClockTime = 9 s

Time = 62s

DILUPBiCGStab:  Solving for Ux, Initial residual = 0.00270919, Final residual = 0.000259828, No Iterations 1
DILUPBiCGStab:  Solving for Uy, Initial residual = 0.00324572, Final residual = 0.000212146, No Iterations 2
DILUPBiCGStab:  Solving for Uz, Initial residual = 0.0170165, Final residual = 0.000857992, No Iterations 2
DILUPBiCGStab:  Solving for h, Initial residual = 0.0162343, Final residual = 0.000575668, No Iterations 1
GAMG:  Solving for p, Initial residual = 0.0355051, Final residual = 0.00226822, No Iterations 1
time step continuity errors : sum local = 15.6086, global = 0.593885, cumulative = -877.763
limitPressure: max 223150
DILUPBiCGStab:  Solving for epsilon, Initial residual = 0.0010774, Final residual = 4.61294e-05, No Iterations 1
DILUPBiCGStab:  Solving for k, Initial residual = 0.00622095, Final residual = 0.000310981, No Iterations 1
ExecutionTime = 8.90247 s  ClockTime = 9 s

Time = 63s

DILUPBiCGStab:  Solving for Ux, Initial residual = 0.00251765, Final residual = 0.000243314, No Iterations 1
DILUPBiCGStab:  Solving for Uy, Initial residual = 0.00308598, Final residual = 0.000200195, No Iterations 2
DILUPBiCGStab:  Solving for Uz, Initial residual = 0.0164034, Final residual = 0.000962314, No Iterations 2
DILUPBiCGStab:  Solving for h, Initial residual = 0.014471, Final residual = 0.000539709, No Iterations 1
GAMG:  Solving for p, Initial residual = 0.0345485, Final residual = 0.00208847, No Iterations 1
time step continuity errors : sum local = 14.4173, global = 0.786275, cumulative = -876.977
limitPressure: max 223000
DILUPBiCGStab:  Solving for epsilon, Initial residual = 0.00101141, Final residual = 4.32671e-05, No Iterations 1
DILUPBiCGStab:  Solving for k, Initial residual = 0.00586735, Final residual = 0.000290073, No Iterations 1
ExecutionTime = 9.02574 s  ClockTime = 9 s

Time = 64s

DILUPBiCGStab:  Solving for Ux, Initial residual = 0.00234936, Final residual = 0.00022809, No Iterations 1
DILUPBiCGStab:  Solving for Uy, Initial residual = 0.00292397, Final residual = 0.000187965, No Iterations 2
DILUPBiCGStab:  Solving for Uz, Initial residual = 0.0158263, Final residual = 0.0010262, No Iterations 2
DILUPBiCGStab:  Solving for h, Initial residual = 0.0129197, Final residual = 0.000505131, No Iterations 1
GAMG:  Solving for p, Initial residual = 0.0335493, Final residual = 0.00192089, No Iterations 1
time step continuity errors : sum local = 13.2966, global = 0.945003, cumulative = -876.032
limitPressure: max 222852
DILUPBiCGStab:  Solving for epsilon, Initial residual = 0.000953188, Final residual = 4.07913e-05, No Iterations 1
DILUPBiCGStab:  Solving for k, Initial residual = 0.00553995, Final residual = 0.000270789, No Iterations 1
ExecutionTime = 9.15139 s  ClockTime = 9 s

Time = 65s

DILUPBiCGStab:  Solving for Ux, Initial residual = 0.00219738, Final residual = 0.000214284, No Iterations 1
DILUPBiCGStab:  Solving for Uy, Initial residual = 0.00276788, Final residual = 0.000175838, No Iterations 2
DILUPBiCGStab:  Solving for Uz, Initial residual = 0.015209, Final residual = 0.000959397, No Iterations 2
DILUPBiCGStab:  Solving for h, Initial residual = 0.0115817, Final residual = 0.000472201, No Iterations 1
GAMG:  Solving for p, Initial residual = 0.0325167, Final residual = 0.00176703, No Iterations 1
time step continuity errors : sum local = 12.2584, global = 1.06936, cumulative = -874.963
limitPressure: max 222699
DILUPBiCGStab:  Solving for epsilon, Initial residual = 0.000901493, Final residual = 3.86165e-05, No Iterations 1
DILUPBiCGStab:  Solving for k, Initial residual = 0.00523785, Final residual = 0.000253045, No Iterations 1
ExecutionTime = 9.27468 s  ClockTime = 9 s

Time = 66s

DILUPBiCGStab:  Solving for Ux, Initial residual = 0.0020601, Final residual = 0.000201737, No Iterations 1
DILUPBiCGStab:  Solving for Uy, Initial residual = 0.00261725, Final residual = 0.00016363, No Iterations 2
DILUPBiCGStab:  Solving for Uz, Initial residual = 0.014529, Final residual = 0.000761547, No Iterations 2
DILUPBiCGStab:  Solving for h, Initial residual = 0.010445, Final residual = 0.00044141, No Iterations 1
GAMG:  Solving for p, Initial residual = 0.0314164, Final residual = 0.00162295, No Iterations 1
time step continuity errors : sum local = 11.2717, global = 1.15471, cumulative = -873.808
limitPressure: max 222553
DILUPBiCGStab:  Solving for epsilon, Initial residual = 0.00085533, Final residual = 3.6701e-05, No Iterations 1
DILUPBiCGStab:  Solving for k, Initial residual = 0.00495914, Final residual = 0.00023688, No Iterations 1
ExecutionTime = 9.39915 s  ClockTime = 9 s

Time = 67s

DILUPBiCGStab:  Solving for Ux, Initial residual = 0.00193228, Final residual = 0.000190106, No Iterations 1
DILUPBiCGStab:  Solving for Uy, Initial residual = 0.00247273, Final residual = 0.000151731, No Iterations 2
DILUPBiCGStab:  Solving for Uz, Initial residual = 0.0138267, Final residual = 0.000607267, No Iterations 2
DILUPBiCGStab:  Solving for h, Initial residual = 0.00948774, Final residual = 0.000411911, No Iterations 1
GAMG:  Solving for p, Initial residual = 0.0302603, Final residual = 0.00148976, No Iterations 1
time step continuity errors : sum local = 10.3513, global = 1.20762, cumulative = -872.601
limitPressure: max 222409
DILUPBiCGStab:  Solving for epsilon, Initial residual = 0.000812856, Final residual = 3.49026e-05, No Iterations 1
DILUPBiCGStab:  Solving for k, Initial residual = 0.00469883, Final residual = 0.000221774, No Iterations 1
ExecutionTime = 9.52257 s  ClockTime = 10 s

Time = 68s

DILUPBiCGStab:  Solving for Ux, Initial residual = 0.00181333, Final residual = 0.000179122, No Iterations 1
DILUPBiCGStab:  Solving for Uy, Initial residual = 0.00233249, Final residual = 0.000140037, No Iterations 2
DILUPBiCGStab:  Solving for Uz, Initial residual = 0.0131385, Final residual = 0.000525059, No Iterations 2
DILUPBiCGStab:  Solving for h, Initial residual = 0.00868505, Final residual = 0.000383698, No Iterations 1
GAMG:  Solving for p, Initial residual = 0.0290413, Final residual = 0.00136756, No Iterations 1
time step continuity errors : sum local = 9.50038, global = 1.23208, cumulative = -871.368
limitPressure: max 222269
DILUPBiCGStab:  Solving for epsilon, Initial residual = 0.000772975, Final residual = 3.31601e-05, No Iterations 1
DILUPBiCGStab:  Solving for k, Initial residual = 0.00445337, Final residual = 0.000207519, No Iterations 1
ExecutionTime = 9.64551 s  ClockTime = 10 s

Time = 69s

DILUPBiCGStab:  Solving for Ux, Initial residual = 0.00170171, Final residual = 0.000169, No Iterations 1
DILUPBiCGStab:  Solving for Uy, Initial residual = 0.00219667, Final residual = 0.000128819, No Iterations 2
DILUPBiCGStab:  Solving for Uz, Initial residual = 0.0124905, Final residual = 0.00124695, No Iterations 1
DILUPBiCGStab:  Solving for h, Initial residual = 0.00801082, Final residual = 0.000356481, No Iterations 1
GAMG:  Solving for p, Initial residual = 0.0277764, Final residual = 0.00124998, No Iterations 1
time step continuity errors : sum local = 8.6836, global = 1.23413, cumulative = -870.134
limitPressure: max 222127
DILUPBiCGStab:  Solving for epsilon, Initial residual = 0.000734877, Final residual = 3.14132e-05, No Iterations 1
DILUPBiCGStab:  Solving for k, Initial residual = 0.00422062, Final residual = 0.000194296, No Iterations 1
ExecutionTime = 9.76702 s  ClockTime = 10 s

Time = 70s

DILUPBiCGStab:  Solving for Ux, Initial residual = 0.00159607, Final residual = 0.000159427, No Iterations 1
DILUPBiCGStab:  Solving for Uy, Initial residual = 0.00206501, Final residual = 0.000117951, No Iterations 2
DILUPBiCGStab:  Solving for Uz, Initial residual = 0.0118511, Final residual = 0.00118341, No Iterations 1
DILUPBiCGStab:  Solving for h, Initial residual = 0.00743748, Final residual = 0.000330585, No Iterations 1
GAMG:  Solving for p, Initial residual = 0.0264573, Final residual = 0.00115302, No Iterations 1
time step continuity errors : sum local = 7.99398, global = 1.22232, cumulative = -868.912
limitPressure: max 221999
DILUPBiCGStab:  Solving for epsilon, Initial residual = 0.000699183, Final residual = 2.96921e-05, No Iterations 1
DILUPBiCGStab:  Solving for k, Initial residual = 0.0039965, Final residual = 0.00018153, No Iterations 1
ExecutionTime = 9.88839 s  ClockTime = 10 s

Time = 71s

DILUPBiCGStab:  Solving for Ux, Initial residual = 0.00149671, Final residual = 1.55646e-05, No Iterations 3
DILUPBiCGStab:  Solving for Uy, Initial residual = 0.00193583, Final residual = 0.000107724, No Iterations 2
DILUPBiCGStab:  Solving for Uz, Initial residual = 0.0113359, Final residual = 0.0011286, No Iterations 1
DILUPBiCGStab:  Solving for h, Initial residual = 0.00695267, Final residual = 0.000314892, No Iterations 1
GAMG:  Solving for p, Initial residual = 0.0251702, Final residual = 0.00111249, No Iterations 1
time step continuity errors : sum local = 7.68684, global = 1.20655, cumulative = -867.705
limitPressure: max 221902
DILUPBiCGStab:  Solving for epsilon, Initial residual = 0.000667987, Final residual = 2.83674e-05, No Iterations 1
DILUPBiCGStab:  Solving for k, Initial residual = 0.00378534, Final residual = 0.00017186, No Iterations 1
ExecutionTime = 10.0136 s  ClockTime = 10 s

Time = 72s

DILUPBiCGStab:  Solving for Ux, Initial residual = 0.00140793, Final residual = 0.000140569, No Iterations 1
DILUPBiCGStab:  Solving for Uy, Initial residual = 0.00180074, Final residual = 9.64589e-05, No Iterations 2
DILUPBiCGStab:  Solving for Uz, Initial residual = 0.0107644, Final residual = 0.00106508, No Iterations 1
DILUPBiCGStab:  Solving for h, Initial residual = 0.00651368, Final residual = 0.000280013, No Iterations 1
GAMG:  Solving for p, Initial residual = 0.0239011, Final residual = 0.00100873, No Iterations 1
time step continuity errors : sum local = 6.95296, global = 1.18016, cumulative = -866.525
limitPressure: max 221757
DILUPBiCGStab:  Solving for epsilon, Initial residual = 0.000628671, Final residual = 2.59151e-05, No Iterations 1
DILUPBiCGStab:  Solving for k, Initial residual = 0.00355504, Final residual = 0.000156671, No Iterations 1
ExecutionTime = 10.1348 s  ClockTime = 10 s

Time = 73s

DILUPBiCGStab:  Solving for Ux, Initial residual = 0.00131663, Final residual = 1.39105e-05, No Iterations 3
DILUPBiCGStab:  Solving for Uy, Initial residual = 0.00169691, Final residual = 9.18228e-05, No Iterations 2
DILUPBiCGStab:  Solving for Uz, Initial residual = 0.010336, Final residual = 0.00102438, No Iterations 1
DILUPBiCGStab:  Solving for h, Initial residual = 0.00613659, Final residual = 0.000268851, No Iterations 1
GAMG:  Solving for p, Initial residual = 0.0225661, Final residual = 0.000964387, No Iterations 1
time step continuity errors : sum local = 6.62826, global = 1.14615, cumulative = -865.379
limitPressure: max 221653
DILUPBiCGStab:  Solving for epsilon, Initial residual = 0.000599068, Final residual = 2.48298e-05, No Iterations 1
DILUPBiCGStab:  Solving for k, Initial residual = 0.00334986, Final residual = 0.000146696, No Iterations 1
ExecutionTime = 10.2603 s  ClockTime = 10 s

Time = 74s

DILUPBiCGStab:  Solving for Ux, Initial residual = 0.0012368, Final residual = 5.38592e-05, No Iterations 2
DILUPBiCGStab:  Solving for Uy, Initial residual = 0.00157902, Final residual = 8.18903e-05, No Iterations 2
DILUPBiCGStab:  Solving for Uz, Initial residual = 0.00976246, Final residual = 0.000965259, No Iterations 1
DILUPBiCGStab:  Solving for h, Initial residual = 0.0057609, Final residual = 0.000249689, No Iterations 1
GAMG:  Solving for p, Initial residual = 0.0212179, Final residual = 0.000892416, No Iterations 1
time step continuity errors : sum local = 6.1261, global = 1.09779, cumulative = -864.281
limitPressure: max 221538
DILUPBiCGStab:  Solving for epsilon, Initial residual = 0.000567589, Final residual = 2.33729e-05, No Iterations 1
DILUPBiCGStab:  Solving for k, Initial residual = 0.00314806, Final residual = 0.000135434, No Iterations 1
ExecutionTime = 10.3845 s  ClockTime = 10 s

Time = 75s

DILUPBiCGStab:  Solving for Ux, Initial residual = 0.00115953, Final residual = 0.000102246, No Iterations 2
DILUPBiCGStab:  Solving for Uy, Initial residual = 0.00147143, Final residual = 7.44681e-05, No Iterations 2
DILUPBiCGStab:  Solving for Uz, Initial residual = 0.00923226, Final residual = 0.000913544, No Iterations 1
DILUPBiCGStab:  Solving for h, Initial residual = 0.00539861, Final residual = 0.000231088, No Iterations 1
GAMG:  Solving for p, Initial residual = 0.0199158, Final residual = 0.000821812, No Iterations 1
time step continuity errors : sum local = 5.62685, global = 1.05927, cumulative = -863.222
limitPressure: max 221436
DILUPBiCGStab:  Solving for epsilon, Initial residual = 0.000539437, Final residual = 2.27218e-05, No Iterations 1
DILUPBiCGStab:  Solving for k, Initial residual = 0.00296175, Final residual = 0.000126257, No Iterations 1
ExecutionTime = 10.5081 s  ClockTime = 11 s

Time = 76s

DILUPBiCGStab:  Solving for Ux, Initial residual = 0.00107686, Final residual = 5.16035e-05, No Iterations 2
DILUPBiCGStab:  Solving for Uy, Initial residual = 0.00137191, Final residual = 6.8904e-05, No Iterations 2
DILUPBiCGStab:  Solving for Uz, Initial residual = 0.00885565, Final residual = 0.000882012, No Iterations 1
DILUPBiCGStab:  Solving for h, Initial residual = 0.00504454, Final residual = 0.000221377, No Iterations 1
GAMG:  Solving for p, Initial residual = 0.0185481, Final residual = 0.000781237, No Iterations 1
time step continuity errors : sum local = 5.34611, global = 1.04226, cumulative = -862.18
limitPressure: max 221350
DILUPBiCGStab:  Solving for epsilon, Initial residual = 0.000512188, Final residual = 2.20391e-05, No Iterations 1
DILUPBiCGStab:  Solving for k, Initial residual = 0.00277613, Final residual = 0.000117266, No Iterations 1
ExecutionTime = 10.6334 s  ClockTime = 11 s

Time = 77s

DILUPBiCGStab:  Solving for Ux, Initial residual = 0.00100627, Final residual = 8.64724e-05, No Iterations 2
DILUPBiCGStab:  Solving for Uy, Initial residual = 0.00126229, Final residual = 6.00362e-05, No Iterations 2
DILUPBiCGStab:  Solving for Uz, Initial residual = 0.00832688, Final residual = 0.000830953, No Iterations 1
DILUPBiCGStab:  Solving for h, Initial residual = 0.00468353, Final residual = 0.000202815, No Iterations 1
GAMG:  Solving for p, Initial residual = 0.0172988, Final residual = 0.000732031, No Iterations 1
time step continuity errors : sum local = 5.00691, global = 1.03365, cumulative = -861.146
limitPressure: max 221252
DILUPBiCGStab:  Solving for epsilon, Initial residual = 0.00048259, Final residual = 2.10845e-05, No Iterations 1
DILUPBiCGStab:  Solving for k, Initial residual = 0.00260052, Final residual = 0.000109287, No Iterations 1
ExecutionTime = 10.7566 s  ClockTime = 11 s

Time = 78s

DILUPBiCGStab:  Solving for Ux, Initial residual = 0.000930686, Final residual = 9.17394e-05, No Iterations 2
DILUPBiCGStab:  Solving for Uy, Initial residual = 0.00117126, Final residual = 5.51259e-05, No Iterations 2
DILUPBiCGStab:  Solving for Uz, Initial residual = 0.00797204, Final residual = 0.000296415, No Iterations 2
DILUPBiCGStab:  Solving for h, Initial residual = 0.00433551, Final residual = 0.00018984, No Iterations 1
GAMG:  Solving for p, Initial residual = 0.0159952, Final residual = 0.000686252, No Iterations 1
time step continuity errors : sum local = 4.70641, global = 1.0189, cumulative = -860.127
limitPressure: max 221154
DILUPBiCGStab:  Solving for epsilon, Initial residual = 0.000455293, Final residual = 2.05452e-05, No Iterations 1
DILUPBiCGStab:  Solving for k, Initial residual = 0.00244132, Final residual = 0.000102788, No Iterations 1
ExecutionTime = 10.8803 s  ClockTime = 11 s

Time = 79s

DILUPBiCGStab:  Solving for Ux, Initial residual = 0.000864968, Final residual = 8.5282e-05, No Iterations 2
DILUPBiCGStab:  Solving for Uy, Initial residual = 0.00108232, Final residual = 4.99271e-05, No Iterations 2
DILUPBiCGStab:  Solving for Uz, Initial residual = 0.00761215, Final residual = 0.000760184, No Iterations 1
DILUPBiCGStab:  Solving for h, Initial residual = 0.00400092, Final residual = 0.00017878, No Iterations 1
GAMG:  Solving for p, Initial residual = 0.0146713, Final residual = 0.000640965, No Iterations 1
time step continuity errors : sum local = 4.38458, global = 0.99245, cumulative = -859.135
limitPressure: max 221081
DILUPBiCGStab:  Solving for epsilon, Initial residual = 0.000429757, Final residual = 1.9823e-05, No Iterations 1
DILUPBiCGStab:  Solving for k, Initial residual = 0.00229485, Final residual = 9.6456e-05, No Iterations 1
ExecutionTime = 11.0032 s  ClockTime = 11 s

Time = 80s

DILUPBiCGStab:  Solving for Ux, Initial residual = 0.000803588, Final residual = 7.92583e-05, No Iterations 2
DILUPBiCGStab:  Solving for Uy, Initial residual = 0.000996299, Final residual = 4.529e-05, No Iterations 2
DILUPBiCGStab:  Solving for Uz, Initial residual = 0.00713352, Final residual = 0.000266366, No Iterations 2
DILUPBiCGStab:  Solving for h, Initial residual = 0.00368253, Final residual = 0.000168196, No Iterations 1
GAMG:  Solving for p, Initial residual = 0.0134696, Final residual = 0.000610005, No Iterations 1
time step continuity errors : sum local = 4.17224, global = 0.9737, cumulative = -858.161
limitPressure: max 221013
DILUPBiCGStab:  Solving for epsilon, Initial residual = 0.000402954, Final residual = 1.86685e-05, No Iterations 1
DILUPBiCGStab:  Solving for k, Initial residual = 0.0021532, Final residual = 8.97243e-05, No Iterations 1
ExecutionTime = 11.1271 s  ClockTime = 11 s

Time = 81s

DILUPBiCGStab:  Solving for Ux, Initial residual = 0.000745456, Final residual = 7.12631e-05, No Iterations 2
DILUPBiCGStab:  Solving for Uy, Initial residual = 0.000917295, Final residual = 4.10693e-05, No Iterations 2
DILUPBiCGStab:  Solving for Uz, Initial residual = 0.00681634, Final residual = 0.000257496, No Iterations 2
DILUPBiCGStab:  Solving for h, Initial residual = 0.0033778, Final residual = 0.000157125, No Iterations 1
GAMG:  Solving for p, Initial residual = 0.0123655, Final residual = 0.00057258, No Iterations 1
time step continuity errors : sum local = 3.93743, global = 0.940643, cumulative = -857.22
limitPressure: max 220930
DILUPBiCGStab:  Solving for epsilon, Initial residual = 0.00037552, Final residual = 1.73476e-05, No Iterations 1
DILUPBiCGStab:  Solving for k, Initial residual = 0.00201401, Final residual = 8.29494e-05, No Iterations 1
ExecutionTime = 11.2514 s  ClockTime = 11 s

Time = 82s

DILUPBiCGStab:  Solving for Ux, Initial residual = 0.000694225, Final residual = 6.14208e-05, No Iterations 2
DILUPBiCGStab:  Solving for Uy, Initial residual = 0.000849172, Final residual = 3.77481e-05, No Iterations 2
DILUPBiCGStab:  Solving for Uz, Initial residual = 0.00643922, Final residual = 0.000244337, No Iterations 2
DILUPBiCGStab:  Solving for h, Initial residual = 0.00308938, Final residual = 0.000147383, No Iterations 1
GAMG:  Solving for p, Initial residual = 0.0113053, Final residual = 0.000541146, No Iterations 1
time step continuity errors : sum local = 3.71125, global = 0.893727, cumulative = -856.327
limitPressure: max 220885
DILUPBiCGStab:  Solving for epsilon, Initial residual = 0.000349495, Final residual = 1.60878e-05, No Iterations 1
DILUPBiCGStab:  Solving for k, Initial residual = 0.00187926, Final residual = 7.68664e-05, No Iterations 1
ExecutionTime = 11.3756 s  ClockTime = 11 s

Time = 83s

DILUPBiCGStab:  Solving for Ux, Initial residual = 0.000644798, Final residual = 5.67144e-05, No Iterations 2
DILUPBiCGStab:  Solving for Uy, Initial residual = 0.000784839, Final residual = 3.46618e-05, No Iterations 2
DILUPBiCGStab:  Solving for Uz, Initial residual = 0.00610402, Final residual = 0.000233263, No Iterations 2
DILUPBiCGStab:  Solving for h, Initial residual = 0.00282141, Final residual = 0.000137436, No Iterations 1
GAMG:  Solving for p, Initial residual = 0.0104104, Final residual = 0.000511897, No Iterations 1
time step continuity errors : sum local = 3.51982, global = 0.858429, cumulative = -855.468
limitPressure: max 220834
DILUPBiCGStab:  Solving for epsilon, Initial residual = 0.000322914, Final residual = 1.46379e-05, No Iterations 1
DILUPBiCGStab:  Solving for k, Initial residual = 0.00174276, Final residual = 7.00592e-05, No Iterations 1
ExecutionTime = 11.4992 s  ClockTime = 11 s

Time = 84s

DILUPBiCGStab:  Solving for Ux, Initial residual = 0.000597969, Final residual = 5.40861e-05, No Iterations 2
DILUPBiCGStab:  Solving for Uy, Initial residual = 0.000726844, Final residual = 3.19336e-05, No Iterations 2
DILUPBiCGStab:  Solving for Uz, Initial residual = 0.0057987, Final residual = 0.000224011, No Iterations 2
DILUPBiCGStab:  Solving for h, Initial residual = 0.00257171, Final residual = 0.000127972, No Iterations 1
GAMG:  Solving for p, Initial residual = 0.00959453, Final residual = 0.000482569, No Iterations 1
time step continuity errors : sum local = 3.3284, global = 0.825396, cumulative = -854.643
limitPressure: max 220788
DILUPBiCGStab:  Solving for epsilon, Initial residual = 0.000296633, Final residual = 1.32317e-05, No Iterations 1
DILUPBiCGStab:  Solving for k, Initial residual = 0.00160883, Final residual = 6.36467e-05, No Iterations 1
ExecutionTime = 11.6243 s  ClockTime = 12 s

Time = 85s

DILUPBiCGStab:  Solving for Ux, Initial residual = 0.000554614, Final residual = 5.31538e-05, No Iterations 2
DILUPBiCGStab:  Solving for Uy, Initial residual = 0.000674802, Final residual = 2.95909e-05, No Iterations 2
DILUPBiCGStab:  Solving for Uz, Initial residual = 0.00551428, Final residual = 0.000215961, No Iterations 2
DILUPBiCGStab:  Solving for h, Initial residual = 0.00234394, Final residual = 0.000119323, No Iterations 1
GAMG:  Solving for p, Initial residual = 0.0088572, Final residual = 0.000449967, No Iterations 1
time step continuity errors : sum local = 3.12643, global = 0.788795, cumulative = -853.854
limitPressure: max 220735
DILUPBiCGStab:  Solving for epsilon, Initial residual = 0.000271626, Final residual = 1.19482e-05, No Iterations 1
DILUPBiCGStab:  Solving for k, Initial residual = 0.00148034, Final residual = 5.78444e-05, No Iterations 1
ExecutionTime = 11.7486 s  ClockTime = 12 s

Time = 86s

DILUPBiCGStab:  Solving for Ux, Initial residual = 0.000515938, Final residual = 2.05901e-05, No Iterations 2
DILUPBiCGStab:  Solving for Uy, Initial residual = 0.000627554, Final residual = 2.76241e-05, No Iterations 2
[...]
DILUPBiCGStab:  Solving for k, Initial residual = 2.29001e-08, Final residual = 3.10783e-09, No Iterations 1
ExecutionTime = 60.4964 s  ClockTime = 61 s

Time = 480s

DILUPBiCGStab:  Solving for Ux, Initial residual = 4.58228e-05, Final residual = 2.0908e-06, No Iterations 2
DILUPBiCGStab:  Solving for Uy, Initial residual = 7.14403e-05, Final residual = 4.63476e-06, No Iterations 2
DILUPBiCGStab:  Solving for Uz, Initial residual = 0.000975477, Final residual = 7.99478e-05, No Iterations 1
DILUPBiCGStab:  Solving for h, Initial residual = 1.70979e-08, Final residual = 2.55188e-09, No Iterations 1
GAMG:  Solving for p, Initial residual = 0.00182034, Final residual = 8.10127e-05, No Iterations 1
time step continuity errors : sum local = 0.488966, global = -0.00655255, cumulative = -842.573
limitPressure: max 220431
DILUPBiCGStab:  Solving for epsilon, Initial residual = 9.02948e-09, Final residual = 9.02948e-09, No Iterations 0
DILUPBiCGStab:  Solving for k, Initial residual = 2.21404e-08, Final residual = 2.98926e-09, No Iterations 1
ExecutionTime = 60.6116 s  ClockTime = 61 s

Time = 481s

DILUPBiCGStab:  Solving for Ux, Initial residual = 4.58227e-05, Final residual = 2.0908e-06, No Iterations 2
DILUPBiCGStab:  Solving for Uy, Initial residual = 7.14404e-05, Final residual = 4.63476e-06, No Iterations 2
DILUPBiCGStab:  Solving for Uz, Initial residual = 0.000975479, Final residual = 7.99479e-05, No Iterations 1
DILUPBiCGStab:  Solving for h, Initial residual = 1.65418e-08, Final residual = 2.46216e-09, No Iterations 1
GAMG:  Solving for p, Initial residual = 0.00182034, Final residual = 8.1013e-05, No Iterations 1
time step continuity errors : sum local = 0.488968, global = -0.00655222, cumulative = -842.58
limitPressure: max 220431
DILUPBiCGStab:  Solving for epsilon, Initial residual = 1.08394e-08, Final residual = 1.4526e-09, No Iterations 1
DILUPBiCGStab:  Solving for k, Initial residual = 2.12941e-08, Final residual = 2.90925e-09, No Iterations 1
ExecutionTime = 60.7294 s  ClockTime = 61 s

Time = 482s

DILUPBiCGStab:  Solving for Ux, Initial residual = 4.58227e-05, Final residual = 2.0908e-06, No Iterations 2
DILUPBiCGStab:  Solving for Uy, Initial residual = 7.14405e-05, Final residual = 4.63478e-06, No Iterations 2
DILUPBiCGStab:  Solving for Uz, Initial residual = 0.000975481, Final residual = 7.99481e-05, No Iterations 1
DILUPBiCGStab:  Solving for h, Initial residual = 1.61254e-08, Final residual = 2.40592e-09, No Iterations 1
GAMG:  Solving for p, Initial residual = 0.00182035, Final residual = 8.10132e-05, No Iterations 1
time step continuity errors : sum local = 0.48897, global = -0.00655189, cumulative = -842.587
limitPressure: max 220431
DILUPBiCGStab:  Solving for epsilon, Initial residual = 8.67152e-09, Final residual = 8.67152e-09, No Iterations 0
DILUPBiCGStab:  Solving for k, Initial residual = 2.05555e-08, Final residual = 2.74573e-09, No Iterations 1
ExecutionTime = 60.8443 s  ClockTime = 61 s

Time = 483s

DILUPBiCGStab:  Solving for Ux, Initial residual = 4.58227e-05, Final residual = 2.0908e-06, No Iterations 2
DILUPBiCGStab:  Solving for Uy, Initial residual = 7.14406e-05, Final residual = 4.63479e-06, No Iterations 2
DILUPBiCGStab:  Solving for Uz, Initial residual = 0.000975483, Final residual = 7.99482e-05, No Iterations 1
DILUPBiCGStab:  Solving for h, Initial residual = 1.55647e-08, Final residual = 2.31791e-09, No Iterations 1
GAMG:  Solving for p, Initial residual = 0.00182035, Final residual = 8.10135e-05, No Iterations 1
time step continuity errors : sum local = 0.488971, global = -0.00655157, cumulative = -842.593
limitPressure: max 220431
DILUPBiCGStab:  Solving for epsilon, Initial residual = 1.03761e-08, Final residual = 1.37597e-09, No Iterations 1
DILUPBiCGStab:  Solving for k, Initial residual = 1.97004e-08, Final residual = 2.60643e-09, No Iterations 1
ExecutionTime = 60.961 s  ClockTime = 61 s

Time = 484s

DILUPBiCGStab:  Solving for Ux, Initial residual = 4.58227e-05, Final residual = 2.0908e-06, No Iterations 2
DILUPBiCGStab:  Solving for Uy, Initial residual = 7.14407e-05, Final residual = 4.63481e-06, No Iterations 2
DILUPBiCGStab:  Solving for Uz, Initial residual = 0.000975485, Final residual = 7.99484e-05, No Iterations 1
DILUPBiCGStab:  Solving for h, Initial residual = 1.51557e-08, Final residual = 2.26789e-09, No Iterations 1
GAMG:  Solving for p, Initial residual = 0.00182036, Final residual = 8.10137e-05, No Iterations 1
time step continuity errors : sum local = 0.488973, global = -0.00655125, cumulative = -842.6
limitPressure: max 220431
DILUPBiCGStab:  Solving for epsilon, Initial residual = 8.26736e-09, Final residual = 8.26736e-09, No Iterations 0
DILUPBiCGStab:  Solving for k, Initial residual = 1.89937e-08, Final residual = 2.42122e-09, No Iterations 1
ExecutionTime = 61.0759 s  ClockTime = 61 s

Time = 485s

DILUPBiCGStab:  Solving for Ux, Initial residual = 4.58227e-05, Final residual = 2.0908e-06, No Iterations 2
DILUPBiCGStab:  Solving for Uy, Initial residual = 7.14408e-05, Final residual = 4.63481e-06, No Iterations 2
DILUPBiCGStab:  Solving for Uz, Initial residual = 0.000975487, Final residual = 7.99486e-05, No Iterations 1
DILUPBiCGStab:  Solving for h, Initial residual = 1.46066e-08, Final residual = 2.18834e-09, No Iterations 1
GAMG:  Solving for p, Initial residual = 0.00182036, Final residual = 8.1014e-05, No Iterations 1
time step continuity errors : sum local = 0.488975, global = -0.00655094, cumulative = -842.606
limitPressure: max 220431
DILUPBiCGStab:  Solving for epsilon, Initial residual = 9.85978e-09, Final residual = 9.85978e-09, No Iterations 0
DILUPBiCGStab:  Solving for k, Initial residual = 2.17671e-08, Final residual = 2.71849e-09, No Iterations 1
ExecutionTime = 61.1918 s  ClockTime = 61 s

Time = 486s

DILUPBiCGStab:  Solving for Ux, Initial residual = 4.58226e-05, Final residual = 2.0908e-06, No Iterations 2
DILUPBiCGStab:  Solving for Uy, Initial residual = 7.14409e-05, Final residual = 4.63483e-06, No Iterations 2
DILUPBiCGStab:  Solving for Uz, Initial residual = 0.000975488, Final residual = 7.99487e-05, No Iterations 1
DILUPBiCGStab:  Solving for h, Initial residual = 1.40553e-08, Final residual = 2.1005e-09, No Iterations 1
GAMG:  Solving for p, Initial residual = 0.00182036, Final residual = 8.10142e-05, No Iterations 1
time step continuity errors : sum local = 0.488976, global = -0.00655065, cumulative = -842.613
limitPressure: max 220431
DILUPBiCGStab:  Solving for epsilon, Initial residual = 1.17538e-08, Final residual = 1.74882e-09, No Iterations 1
DILUPBiCGStab:  Solving for k, Initial residual = 2.07105e-08, Final residual = 2.60376e-09, No Iterations 1
ExecutionTime = 61.3093 s  ClockTime = 61 s

Time = 487s

DILUPBiCGStab:  Solving for Ux, Initial residual = 4.58226e-05, Final residual = 2.0908e-06, No Iterations 2
DILUPBiCGStab:  Solving for Uy, Initial residual = 7.1441e-05, Final residual = 4.63484e-06, No Iterations 2
DILUPBiCGStab:  Solving for Uz, Initial residual = 0.00097549, Final residual = 7.99488e-05, No Iterations 1
DILUPBiCGStab:  Solving for h, Initial residual = 1.36526e-08, Final residual = 2.08012e-09, No Iterations 1
GAMG:  Solving for p, Initial residual = 0.00182037, Final residual = 8.10145e-05, No Iterations 1
time step continuity errors : sum local = 0.488978, global = -0.00655035, cumulative = -842.619
limitPressure: max 220431
DILUPBiCGStab:  Solving for epsilon, Initial residual = 9.04098e-09, Final residual = 9.04098e-09, No Iterations 0
DILUPBiCGStab:  Solving for k, Initial residual = 1.98598e-08, Final residual = 2.43493e-09, No Iterations 1
ExecutionTime = 61.4237 s  ClockTime = 61 s

Time = 488s

DILUPBiCGStab:  Solving for Ux, Initial residual = 4.58226e-05, Final residual = 2.0908e-06, No Iterations 2
DILUPBiCGStab:  Solving for Uy, Initial residual = 7.14411e-05, Final residual = 4.63485e-06, No Iterations 2
DILUPBiCGStab:  Solving for Uz, Initial residual = 0.000975492, Final residual = 7.99489e-05, No Iterations 1
DILUPBiCGStab:  Solving for h, Initial residual = 1.31042e-08, Final residual = 2.00964e-09, No Iterations 1
GAMG:  Solving for p, Initial residual = 0.00182037, Final residual = 8.10147e-05, No Iterations 1
time step continuity errors : sum local = 0.488979, global = -0.00655005, cumulative = -842.626
limitPressure: max 220431
DILUPBiCGStab:  Solving for epsilon, Initial residual = 1.06157e-08, Final residual = 1.38764e-09, No Iterations 1
DILUPBiCGStab:  Solving for k, Initial residual = 1.89666e-08, Final residual = 2.34341e-09, No Iterations 1
ExecutionTime = 61.5406 s  ClockTime = 62 s

Time = 489s

DILUPBiCGStab:  Solving for Ux, Initial residual = 4.58226e-05, Final residual = 2.0908e-06, No Iterations 2
DILUPBiCGStab:  Solving for Uy, Initial residual = 7.14412e-05, Final residual = 4.63487e-06, No Iterations 2
DILUPBiCGStab:  Solving for Uz, Initial residual = 0.000975494, Final residual = 7.99491e-05, No Iterations 1
DILUPBiCGStab:  Solving for h, Initial residual = 1.27077e-08, Final residual = 1.97951e-09, No Iterations 1
GAMG:  Solving for p, Initial residual = 0.00182038, Final residual = 8.1015e-05, No Iterations 1
time step continuity errors : sum local = 0.488981, global = -0.00654975, cumulative = -842.632
limitPressure: max 220431
DILUPBiCGStab:  Solving for epsilon, Initial residual = 8.35483e-09, Final residual = 8.35483e-09, No Iterations 0
DILUPBiCGStab:  Solving for k, Initial residual = 1.81602e-08, Final residual = 2.22727e-09, No Iterations 1
ExecutionTime = 61.6552 s  ClockTime = 62 s

Time = 490s

DILUPBiCGStab:  Solving for Ux, Initial residual = 4.58226e-05, Final residual = 2.0908e-06, No Iterations 2
DILUPBiCGStab:  Solving for Uy, Initial residual = 7.14413e-05, Final residual = 4.63488e-06, No Iterations 2
DILUPBiCGStab:  Solving for Uz, Initial residual = 0.000975495, Final residual = 7.99492e-05, No Iterations 1
DILUPBiCGStab:  Solving for h, Initial residual = 1.21813e-08, Final residual = 1.90987e-09, No Iterations 1
GAMG:  Solving for p, Initial residual = 0.00182038, Final residual = 8.10152e-05, No Iterations 1
time step continuity errors : sum local = 0.488982, global = -0.00654945, cumulative = -842.639
limitPressure: max 220431
DILUPBiCGStab:  Solving for epsilon, Initial residual = 9.83068e-09, Final residual = 9.83068e-09, No Iterations 0
DILUPBiCGStab:  Solving for k, Initial residual = 2.10034e-08, Final residual = 2.64633e-09, No Iterations 1
ExecutionTime = 61.7705 s  ClockTime = 62 s

Time = 491s

DILUPBiCGStab:  Solving for Ux, Initial residual = 4.58225e-05, Final residual = 2.0908e-06, No Iterations 2
DILUPBiCGStab:  Solving for Uy, Initial residual = 7.14413e-05, Final residual = 4.63489e-06, No Iterations 2
DILUPBiCGStab:  Solving for Uz, Initial residual = 0.000975497, Final residual = 7.99494e-05, No Iterations 1
DILUPBiCGStab:  Solving for h, Initial residual = 1.16605e-08, Final residual = 1.83588e-09, No Iterations 1
GAMG:  Solving for p, Initial residual = 0.00182038, Final residual = 8.10154e-05, No Iterations 1
time step continuity errors : sum local = 0.488984, global = -0.00654916, cumulative = -842.646
limitPressure: max 220431
DILUPBiCGStab:  Solving for epsilon, Initial residual = 1.15999e-08, Final residual = 1.67733e-09, No Iterations 1
DILUPBiCGStab:  Solving for k, Initial residual = 2.02282e-08, Final residual = 2.6826e-09, No Iterations 1
ExecutionTime = 61.8873 s  ClockTime = 62 s

Time = 492s

DILUPBiCGStab:  Solving for Ux, Initial residual = 4.58226e-05, Final residual = 2.09081e-06, No Iterations 2
DILUPBiCGStab:  Solving for Uy, Initial residual = 7.14414e-05, Final residual = 4.6349e-06, No Iterations 2
DILUPBiCGStab:  Solving for Uz, Initial residual = 0.000975499, Final residual = 7.99495e-05, No Iterations 1
DILUPBiCGStab:  Solving for h, Initial residual = 1.13101e-08, Final residual = 1.82318e-09, No Iterations 1
GAMG:  Solving for p, Initial residual = 0.00182039, Final residual = 8.10156e-05, No Iterations 1
time step continuity errors : sum local = 0.488985, global = -0.00654885, cumulative = -842.652
limitPressure: max 220431
DILUPBiCGStab:  Solving for epsilon, Initial residual = 9.00779e-09, Final residual = 9.00779e-09, No Iterations 0
DILUPBiCGStab:  Solving for k, Initial residual = 1.93674e-08, Final residual = 2.55434e-09, No Iterations 1
ExecutionTime = 62.0022 s  ClockTime = 62 s

Time = 493s

DILUPBiCGStab:  Solving for Ux, Initial residual = 4.58225e-05, Final residual = 2.09081e-06, No Iterations 2
DILUPBiCGStab:  Solving for Uy, Initial residual = 7.14415e-05, Final residual = 4.63491e-06, No Iterations 2
DILUPBiCGStab:  Solving for Uz, Initial residual = 0.0009755, Final residual = 7.99496e-05, No Iterations 1
DILUPBiCGStab:  Solving for h, Initial residual = 1.08164e-08, Final residual = 1.77088e-09, No Iterations 1
GAMG:  Solving for p, Initial residual = 0.00182039, Final residual = 8.10158e-05, No Iterations 1
time step continuity errors : sum local = 0.488987, global = -0.00654855, cumulative = -842.659
limitPressure: max 220431
DILUPBiCGStab:  Solving for epsilon, Initial residual = 1.05283e-08, Final residual = 1.38588e-09, No Iterations 1
DILUPBiCGStab:  Solving for k, Initial residual = 1.85928e-08, Final residual = 2.50193e-09, No Iterations 1
ExecutionTime = 62.1192 s  ClockTime = 62 s

Time = 494s

DILUPBiCGStab:  Solving for Ux, Initial residual = 4.58226e-05, Final residual = 2.09081e-06, No Iterations 2
DILUPBiCGStab:  Solving for Uy, Initial residual = 7.14416e-05, Final residual = 4.63492e-06, No Iterations 2
DILUPBiCGStab:  Solving for Uz, Initial residual = 0.000975502, Final residual = 7.99498e-05, No Iterations 1
DILUPBiCGStab:  Solving for h, Initial residual = 1.04993e-08, Final residual = 1.75318e-09, No Iterations 1
GAMG:  Solving for p, Initial residual = 0.0018204, Final residual = 8.10161e-05, No Iterations 1
time step continuity errors : sum local = 0.488988, global = -0.00654823, cumulative = -842.665
limitPressure: max 220431
DILUPBiCGStab:  Solving for epsilon, Initial residual = 8.33695e-09, Final residual = 8.33695e-09, No Iterations 0
DILUPBiCGStab:  Solving for k, Initial residual = 1.76223e-08, Final residual = 2.38736e-09, No Iterations 1
ExecutionTime = 62.2344 s  ClockTime = 62 s

Time = 495s

DILUPBiCGStab:  Solving for Ux, Initial residual = 4.58225e-05, Final residual = 2.09081e-06, No Iterations 2
DILUPBiCGStab:  Solving for Uy, Initial residual = 7.14417e-05, Final residual = 4.63493e-06, No Iterations 2
DILUPBiCGStab:  Solving for Uz, Initial residual = 0.000975504, Final residual = 7.99499e-05, No Iterations 1
DILUPBiCGStab:  Solving for h, Initial residual = 1.00521e-08, Final residual = 1.69494e-09, No Iterations 1
GAMG:  Solving for p, Initial residual = 0.0018204, Final residual = 8.10163e-05, No Iterations 1
time step continuity errors : sum local = 0.488989, global = -0.00654793, cumulative = -842.672
limitPressure: max 220431
DILUPBiCGStab:  Solving for epsilon, Initial residual = 9.73464e-09, Final residual = 9.73464e-09, No Iterations 0
DILUPBiCGStab:  Solving for k, Initial residual = 2.02565e-08, Final residual = 2.72885e-09, No Iterations 1
ExecutionTime = 62.3497 s  ClockTime = 62 s

Time = 496s

DILUPBiCGStab:  Solving for Ux, Initial residual = 4.58225e-05, Final residual = 2.09081e-06, No Iterations 2
DILUPBiCGStab:  Solving for Uy, Initial residual = 7.14417e-05, Final residual = 4.63494e-06, No Iterations 2
DILUPBiCGStab:  Solving for Uz, Initial residual = 0.000975505, Final residual = 7.995e-05, No Iterations 1
DILUPBiCGStab:  Solving for h, Initial residual = 9.62161e-09, Final residual = 9.62161e-09, No Iterations 0
GAMG:  Solving for p, Initial residual = 0.0018204, Final residual = 8.10165e-05, No Iterations 1
time step continuity errors : sum local = 0.488991, global = -0.00654754, cumulative = -842.678
limitPressure: max 220431
DILUPBiCGStab:  Solving for epsilon, Initial residual = 1.14039e-08, Final residual = 1.64063e-09, No Iterations 1
DILUPBiCGStab:  Solving for k, Initial residual = 1.91483e-08, Final residual = 2.66242e-09, No Iterations 1
ExecutionTime = 62.4645 s  ClockTime = 63 s

Time = 497s

DILUPBiCGStab:  Solving for Ux, Initial residual = 4.58225e-05, Final residual = 2.09081e-06, No Iterations 2
DILUPBiCGStab:  Solving for Uy, Initial residual = 7.14419e-05, Final residual = 4.63495e-06, No Iterations 2
DILUPBiCGStab:  Solving for Uz, Initial residual = 0.000975507, Final residual = 7.99501e-05, No Iterations 1
DILUPBiCGStab:  Solving for h, Initial residual = 9.90956e-09, Final residual = 9.90956e-09, No Iterations 0
GAMG:  Solving for p, Initial residual = 0.00182041, Final residual = 8.10167e-05, No Iterations 1
time step continuity errors : sum local = 0.488992, global = -0.00654714, cumulative = -842.685
limitPressure: max 220431
DILUPBiCGStab:  Solving for epsilon, Initial residual = 8.76546e-09, Final residual = 8.76546e-09, No Iterations 0
DILUPBiCGStab:  Solving for k, Initial residual = 1.78498e-08, Final residual = 2.52285e-09, No Iterations 1
ExecutionTime = 62.5767 s  ClockTime = 63 s

Time = 498s

DILUPBiCGStab:  Solving for Ux, Initial residual = 4.58225e-05, Final residual = 2.09081e-06, No Iterations 2
DILUPBiCGStab:  Solving for Uy, Initial residual = 7.1442e-05, Final residual = 4.63496e-06, No Iterations 2
DILUPBiCGStab:  Solving for Uz, Initial residual = 0.000975508, Final residual = 7.99502e-05, No Iterations 1
DILUPBiCGStab:  Solving for h, Initial residual = 1.02785e-08, Final residual = 2.46912e-09, No Iterations 1
GAMG:  Solving for p, Initial residual = 0.00182041, Final residual = 8.10169e-05, No Iterations 1
time step continuity errors : sum local = 0.488993, global = -0.00654677, cumulative = -842.691
limitPressure: max 220431
DILUPBiCGStab:  Solving for epsilon, Initial residual = 1.00925e-08, Final residual = 1.30318e-09, No Iterations 1
DILUPBiCGStab:  Solving for k, Initial residual = 1.651e-08, Final residual = 2.33814e-09, No Iterations 1
ExecutionTime = 62.6934 s  ClockTime = 63 s

Time = 499s

DILUPBiCGStab:  Solving for Ux, Initial residual = 4.58225e-05, Final residual = 2.09081e-06, No Iterations 2
DILUPBiCGStab:  Solving for Uy, Initial residual = 7.14421e-05, Final residual = 4.63498e-06, No Iterations 2
DILUPBiCGStab:  Solving for Uz, Initial residual = 0.00097551, Final residual = 7.99503e-05, No Iterations 1
DILUPBiCGStab:  Solving for h, Initial residual = 9.94874e-09, Final residual = 9.94874e-09, No Iterations 0
GAMG:  Solving for p, Initial residual = 0.00182041, Final residual = 8.10171e-05, No Iterations 1
time step continuity errors : sum local = 0.488995, global = -0.00654641, cumulative = -842.698
limitPressure: max 220431
DILUPBiCGStab:  Solving for epsilon, Initial residual = 7.84235e-09, Final residual = 7.84235e-09, No Iterations 0
DILUPBiCGStab:  Solving for k, Initial residual = 1.53963e-08, Final residual = 2.28582e-09, No Iterations 1
ExecutionTime = 62.8059 s  ClockTime = 63 s

Time = 500s

DILUPBiCGStab:  Solving for Ux, Initial residual = 4.58225e-05, Final residual = 2.09081e-06, No Iterations 2
DILUPBiCGStab:  Solving for Uy, Initial residual = 7.14422e-05, Final residual = 4.63498e-06, No Iterations 2
DILUPBiCGStab:  Solving for Uz, Initial residual = 0.000975511, Final residual = 7.99504e-05, No Iterations 1
DILUPBiCGStab:  Solving for h, Initial residual = 1.02601e-08, Final residual = 2.38815e-09, No Iterations 1
GAMG:  Solving for p, Initial residual = 0.00182042, Final residual = 8.10173e-05, No Iterations 1
time step continuity errors : sum local = 0.488996, global = -0.00654606, cumulative = -842.704
limitPressure: max 220431
DILUPBiCGStab:  Solving for epsilon, Initial residual = 8.96829e-09, Final residual = 8.96829e-09, No Iterations 0
DILUPBiCGStab:  Solving for k, Initial residual = 1.70186e-08, Final residual = 2.4648e-09, No Iterations 1
ExecutionTime = 63.2712 s  ClockTime = 63 s

End

