/*---------------------------------------------------------------------------*\
  =========                 |
  \\      /  F ield         | OpenFOAM: The Open Source CFD Toolbox
   \\    /   O peration     | Website:  https://openfoam.org
    \\  /    A nd           | Version:  10
     \\/     M anipulation  |
\*---------------------------------------------------------------------------*/
Build  : 10
Exec   : blockMesh
Date   : Apr 19 2026
Time   : 01:49:25
Host   : "alphagpu11"
PID    : 2847056
I/O    : uncollated
Case   : /mnt/home/DDN_Copy/rpi/pxu10/criteria/qwen3.5-35b-benchmark/runs/pitzDaily/3
nProcs : 1
sigFpe : Enabling floating point exception trapping (FOAM_SIGFPE).
fileModificationChecking : Monitoring run-time modified files using timeStampMaster (fileModificationSkew 10)
allowSystemOperations : Allowing user-supplied system call operations

// * * * * * * * * * * * * * * * * * * * * * * * * * * * * * * * * * * * * * //
Create time

Reading "blockMeshDict"

Creating block mesh from
    "system/blockMeshDict"
Creating block edges
No non-planar block faces defined
Creating topology blocks


--> FOAM FATAL IO ERROR: 
Block hex (0 4 5 3) (20 1 1) simpleGrading (1(1) 1(1) 1(1)) has inward-pointing faces
    4(4 5 49 0) 4(3 0 49 5) 4(0 3 5 4) 

file: /mnt/home/DDN_Copy/rpi/pxu10/criteria/qwen3.5-35b-benchmark/runs/pitzDaily/3/system/blockMeshDict/blocks at line 57.

    From function void Foam::blockDescriptor::check(const Foam::Istream&)
    in file blockDescriptor/blockDescriptor.C at line 106.

FOAM exiting

