/*---------------------------------------------------------------------------*\
  =========                 |
  \\      /  F ield         | OpenFOAM: The Open Source CFD Toolbox
   \\    /   O peration     | Website:  https://openfoam.org
    \\  /    A nd           | Version:  10
     \\/     M anipulation  |
\*---------------------------------------------------------------------------*/
Build  : 10
Exec   : blockMesh
Date   : Apr 18 2026
Time   : 22:36:08
Host   : "alphagpu11"
PID    : 2713742
I/O    : uncollated
Case   : /mnt/home/DDN_Copy/rpi/pxu10/criteria/qwen3.5-35b-benchmark/runs/BernardCells/1
nProcs : 1
sigFpe : Enabling floating point exception trapping (FOAM_SIGFPE).
fileModificationChecking : Monitoring run-time modified files using timeStampMaster (fileModificationSkew 10)
allowSystemOperations : Allowing user-supplied system call operations

// * * * * * * * * * * * * * * * * * * * * * * * * * * * * * * * * * * * * * //
Create time

Deleting polyMesh directory
    "/mnt/home/DDN_Copy/rpi/pxu10/criteria/qwen3.5-35b-benchmark/runs/BernardCells/1/constant/polyMesh"
Reading "blockMeshDict"

Creating block mesh from
    "system/blockMeshDict"
Creating block edges
No non-planar block faces defined
Creating topology blocks
Creating topology patches

Creating block mesh topology

Check topology

	Basic statistics
		Number of internal faces : 0
		Number of boundary faces : 6
		Number of defined boundary faces : 6
		Number of undefined boundary faces : 0
	Checking patch -> block consistency

Creating block offsets
Creating merge list .

Creating polyMesh from blockMesh
Creating patches
Creating cells
Creating points with scale 1
    Block 0 cell size :
        i : 0.9 .. 0.9
        j : 0.1 .. 0.1
        k : 0.2 .. 0.2

Writing polyMesh
----------------
Mesh Information
----------------
  boundingBox: (0 0 0) (9 1 2)
  nPoints: 1331
  nCells: 1000
  nFaces: 3300
  nInternalFaces: 2700
----------------
Patches
----------------
  patch 0 (start: 2700 size: 100) name: left
  patch 1 (start: 2800 size: 100) name: right
  patch 2 (start: 2900 size: 100) name: bottom
  patch 3 (start: 3000 size: 100) name: top
  patch 4 (start: 3100 size: 100) name: front
  patch 5 (start: 3200 size: 100) name: back

End

