/*---------------------------------------------------------------------------*\
  =========                 |
  \\      /  F ield         | OpenFOAM: The Open Source CFD Toolbox
   \\    /   O peration     | Website:  https://openfoam.org
    \\  /    A nd           | Version:  10
     \\/     M anipulation  |
\*---------------------------------------------------------------------------*/
Build  : 10
Exec   : rhoCentralFoam
Date   : Apr 19 2026
Time   : 01:06:30
Host   : "alphagpu11"
PID    : 2818144
I/O    : uncollated
Case   : /mnt/home/DDN_Copy/rpi/pxu10/criteria/qwen3.5-35b-benchmark/runs/obliqueShock/2
nProcs : 1
sigFpe : Enabling floating point exception trapping (FOAM_SIGFPE).
fileModificationChecking : Monitoring run-time modified files using timeStampMaster (fileModificationSkew 10)
allowSystemOperations : Allowing user-supplied system call operations

// * * * * * * * * * * * * * * * * * * * * * * * * * * * * * * * * * * * * * //
Create time

Create mesh for time = 0

Reading thermophysical properties

Selecting thermodynamics package 
{
    type            hePsiThermo;
    mixture         pureMixture;
    transport       const;
    thermo          hConst;
    equationOfState perfectGas;
    specie          ;
    energy          sensibleEnthalpy;
}

Using dynamicCode for codedBase hePsiThermo_pureMixture_const_hConst_perfectGas____sensibleEnthalpy___ at line 17 in "/mnt/home/pxu10/OpenFOAM/OpenFOAM-10/etc/codeTemplates/dynamicCode/psiThermo"


--> FOAM FATAL IO ERROR: 
Unknown specie type 
Supported specie types: 
1
(
specie 
)

file: /mnt/home/pxu10/OpenFOAM/OpenFOAM-10/etc/codeTemplates/dynamicCode/psiThermo from line 17 to line 72.

    From function void Foam::compileTemplate::setFilterVariable(Foam::dynamicCode&, const Foam::dynamicCodeContext&, const Foam::Pair<Foam::word>&) const
    in file db/dynamicLibrary/compileTemplate/compileTemplate.C at line 81.

FOAM exiting

