/*---------------------------------------------------------------------------*\
  =========                 |
  \\      /  F ield         | OpenFOAM: The Open Source CFD Toolbox
   \\    /   O peration     | Website:  https://openfoam.org
    \\  /    A nd           | Version:  10
     \\/     M anipulation  |
\*---------------------------------------------------------------------------*/
Build  : 10
Exec   : shallowWaterFoam
Date   : Mar 02 2026
Time   : 03:20:46
Host   : "alphagpu17"
PID    : 4129336
I/O    : uncollated
Case   : /mnt/home/DDN_Copy/rpi/pxu10/standard/qwen-benchmark/runs/shallowWaterWithSquareBump/2
nProcs : 1
sigFpe : Enabling floating point exception trapping (FOAM_SIGFPE).
fileModificationChecking : Monitoring run-time modified files using timeStampMaster (fileModificationSkew 10)
allowSystemOperations : Allowing user-supplied system call operations

// * * * * * * * * * * * * * * * * * * * * * * * * * * * * * * * * * * * * * //
Create time

Create mesh for time = 0


PIMPLE: No convergence criteria found


PIMPLE: Operating solver in transient mode with 1 outer corrector
PIMPLE: Operating solver in PISO mode



Reading gravitationalProperties


--> FOAM FATAL IO ERROR: 
wrong token type - expected word, found on line 10 the punctuation token '('

file: /mnt/home/DDN_Copy/rpi/pxu10/standard/qwen-benchmark/runs/shallowWaterWithSquareBump/2/constant/gravitationalProperties/g at line 10.

    From function Foam::Istream& Foam::operator>>(Istream&, word&)
    in file primitives/strings/word/wordIO.C at line 74.

FOAM exiting

