/*---------------------------------------------------------------------------*\
  =========                 |
  \\      /  F ield         | OpenFOAM: The Open Source CFD Toolbox
   \\    /   O peration     | Website:  https://openfoam.org
    \\  /    A nd           | Version:  10
     \\/     M anipulation  |
\*---------------------------------------------------------------------------*/
Build  : 10
Exec   : blockMesh
Date   : Mar 02 2026
Time   : 03:20:46
Host   : "alphagpu17"
PID    : 4129333
I/O    : uncollated
Case   : /mnt/home/DDN_Copy/rpi/pxu10/standard/qwen-benchmark/runs/shallowWaterWithSquareBump/2
nProcs : 1
sigFpe : Enabling floating point exception trapping (FOAM_SIGFPE).
fileModificationChecking : Monitoring run-time modified files using timeStampMaster (fileModificationSkew 10)
allowSystemOperations : Allowing user-supplied system call operations

// * * * * * * * * * * * * * * * * * * * * * * * * * * * * * * * * * * * * * //
Create time

Deleting polyMesh directory
    "/mnt/home/DDN_Copy/rpi/pxu10/standard/qwen-benchmark/runs/shallowWaterWithSquareBump/2/constant/polyMesh"
Reading "blockMeshDict"

Creating block mesh from
    "system/blockMeshDict"
Creating block edges
No non-planar block faces defined
Creating topology blocks
Creating topology patches

Creating block mesh topology

Check topology

	Basic statistics
		Number of internal faces : 0
		Number of boundary faces : 6
		Number of defined boundary faces : 6
		Number of undefined boundary faces : 0
	Checking patch -> block consistency

Creating block offsets
Creating merge list .

Creating polyMesh from blockMesh
Creating patches
Creating cells
Creating points with scale 1
    Block 0 cell size :
        i : 0.05 .. 0.05
        j : 0.05 .. 0.05
        k : 0.1

Writing polyMesh
----------------
Mesh Information
----------------
  boundingBox: (0 0 0) (1 1 0.1)
  nPoints: 882
  nCells: 400
  nFaces: 1640
  nInternalFaces: 760
----------------
Patches
----------------
  patch 0 (start: 760 size: 20) name: inlet
  patch 1 (start: 780 size: 20) name: outlet
  patch 2 (start: 800 size: 400) name: front
  patch 3 (start: 1200 size: 400) name: back
  patch 4 (start: 1600 size: 20) name: top
  patch 5 (start: 1620 size: 20) name: bottom

End

