/*---------------------------------------------------------------------------*\
  =========                 |
  \\      /  F ield         | OpenFOAM: The Open Source CFD Toolbox
   \\    /   O peration     | Website:  https://openfoam.org
    \\  /    A nd           | Version:  10
     \\/     M anipulation  |
\*---------------------------------------------------------------------------*/
Build  : 10
Exec   : blockMesh
Date   : Mar 01 2026
Time   : 23:58:56
Host   : "alphagpu17"
PID    : 3835227
I/O    : uncollated
Case   : /mnt/home/DDN_Copy/rpi/pxu10/standard/qwen-benchmark/runs/BernardCells/3
nProcs : 1
sigFpe : Enabling floating point exception trapping (FOAM_SIGFPE).
fileModificationChecking : Monitoring run-time modified files using timeStampMaster (fileModificationSkew 10)
allowSystemOperations : Allowing user-supplied system call operations

// * * * * * * * * * * * * * * * * * * * * * * * * * * * * * * * * * * * * * //
Create time

--> FOAM Warning : 
    From function void* Foam::dlOpen(const fileName&, bool)
    in file POSIX.C at line 1247
    dlopen error : libfvMeshTools.so: cannot open shared object file: No such file or directory
--> FOAM Warning : 
    From function bool Foam::dlLibraryTable::open(const Foam::fileName&, bool)
    in file db/dynamicLibrary/dlLibraryTable/dlLibraryTable.C at line 106
    could not load "libfvMeshTools.so"
Reading "blockMeshDict"

Creating block mesh from
    "system/blockMeshDict"
Creating block edges
No non-planar block faces defined
Creating topology blocks
Creating topology patches

Creating block mesh topology


--> FOAM FATAL ERROR: 
Trying to specify a boundary face 4(3 2 6 7) on the face on cell 0 which is either an internal face or already belongs to some other patch.  This is face 0 of patch 4 named hotWall.

    From function void Foam::polyMesh::setTopology(const Foam::cellShapeList&, const Foam::faceListList&, const Foam::wordList&, Foam::labelList&, Foam::labelList&, Foam::label&, Foam::label&, Foam::cellList&)
    in file meshes/polyMesh/polyMeshFromShapeMesh.C at line 324.

FOAM aborting

#0  Foam::error::printStack(Foam::Ostream&) at ??:?
#1  Foam::error::abort() at ??:?
#2  Foam::polyMesh::setTopology(Foam::List<Foam::cellShape> const&, Foam::List<Foam::List<Foam::face> > const&, Foam::List<Foam::word> const&, Foam::List<int>&, Foam::List<int>&, int&, int&, Foam::List<Foam::cell>&) at ??:?
#3  Foam::polyMesh::polyMesh(Foam::IOobject const&, Foam::Field<Foam::Vector<double> >&&, Foam::List<Foam::cellShape> const&, Foam::List<Foam::List<Foam::face> > const&, Foam::List<Foam::word> const&, Foam::PtrList<Foam::dictionary> const&, Foam::word const&, Foam::word const&, bool) at ??:?
#4  Foam::blockMesh::createTopology(Foam::IOdictionary const&, Foam::word const&) at ??:?
#5  Foam::blockMesh::blockMesh(Foam::IOdictionary const&, Foam::word const&) at ??:?
#6  ? at ??:?
#7  ? in "/lib64/libc.so.6"
#8  __libc_start_main in "/lib64/libc.so.6"
#9  ? at ??:?
