/*---------------------------------------------------------------------------*\
  =========                 |
  \\      /  F ield         | OpenFOAM: The Open Source CFD Toolbox
   \\    /   O peration     | Website:  https://openfoam.org
    \\  /    A nd           | Version:  10
     \\/     M anipulation  |
\*---------------------------------------------------------------------------*/
Build  : 10
Exec   : blockMesh
Date   : Mar 02 2026
Time   : 02:14:04
Host   : "alphagpu17"
PID    : 4047883
I/O    : uncollated
Case   : /mnt/home/DDN_Copy/rpi/pxu10/standard/qwen-benchmark/runs/squareBend/3
nProcs : 1
sigFpe : Enabling floating point exception trapping (FOAM_SIGFPE).
fileModificationChecking : Monitoring run-time modified files using timeStampMaster (fileModificationSkew 10)
allowSystemOperations : Allowing user-supplied system call operations

// * * * * * * * * * * * * * * * * * * * * * * * * * * * * * * * * * * * * * //
Create time

Reading "blockMeshDict"

Creating block mesh from
    "system/blockMeshDict"
Creating block edges


--> FOAM FATAL IO ERROR: 
wrong token type - expected int32_t, found on line 31 the punctuation token '('

file: /mnt/home/DDN_Copy/rpi/pxu10/standard/qwen-benchmark/runs/squareBend/3/system/blockMeshDict/edges at line 31.

    From function Foam::Istream& Foam::operator>>(Istream&, int32_t&)
    in file primitives/ints/int32/int32IO.C at line 62.

FOAM exiting

