/*---------------------------------------------------------------------------*\
  =========                 |
  \\      /  F ield         | OpenFOAM: The Open Source CFD Toolbox
   \\    /   O peration     | Website:  https://openfoam.org
    \\  /    A nd           | Version:  10
     \\/     M anipulation  |
\*---------------------------------------------------------------------------*/
Build  : 10
Exec   : blockMesh
Date   : Apr 19 2026
Time   : 03:20:36
Host   : "alphagpu11"
PID    : 2912580
I/O    : uncollated
Case   : /mnt/home/DDN_Copy/rpi/pxu10/criteria/qwen3.5-35b-benchmark/runs/damBreakWithObstacle/3
nProcs : 1
sigFpe : Enabling floating point exception trapping (FOAM_SIGFPE).
fileModificationChecking : Monitoring run-time modified files using timeStampMaster (fileModificationSkew 10)
allowSystemOperations : Allowing user-supplied system call operations

// * * * * * * * * * * * * * * * * * * * * * * * * * * * * * * * * * * * * * //
Create time

Deleting polyMesh directory
    "/mnt/home/DDN_Copy/rpi/pxu10/criteria/qwen3.5-35b-benchmark/runs/damBreakWithObstacle/3/constant/polyMesh"
Reading "blockMeshDict"

Creating block mesh from
    "system/blockMeshDict"
Creating block edges
No non-planar block faces defined
Creating topology blocks
Creating topology patches

Creating block mesh topology

Check topology

	Basic statistics
		Number of internal faces : 0
		Number of boundary faces : 6
		Number of defined boundary faces : 6
		Number of undefined boundary faces : 0
	Checking patch -> block consistency

Creating block offsets
Creating merge list .

Creating polyMesh from blockMesh
Creating patches
Creating cells
Creating points with scale 1
    Block 0 cell size :
        i : 0.03125
        j : 0.03125
        k : 0.03125

There are no merge patch pairs edges

Writing polyMesh
----------------
Mesh Information
----------------
  boundingBox: (0 0 0) (1 1 1)
  nPoints: 35937
  nCells: 32768
  nFaces: 101376
  nInternalFaces: 95232
----------------
Patches
----------------
  patch 0 (start: 95232 size: 1024) name: front
  patch 1 (start: 96256 size: 1024) name: back
  patch 2 (start: 97280 size: 1024) name: bottom
  patch 3 (start: 98304 size: 1024) name: top
  patch 4 (start: 99328 size: 1024) name: left
  patch 5 (start: 100352 size: 1024) name: right

End

