/*---------------------------------------------------------------------------*\
  =========                 |
  \\      /  F ield         | OpenFOAM: The Open Source CFD Toolbox
   \\    /   O peration     | Website:  https://openfoam.org
    \\  /    A nd           | Version:  10
     \\/     M anipulation  |
\*---------------------------------------------------------------------------*/
Build  : 10
Exec   : interFoam
Date   : Apr 19 2026
Time   : 03:20:38
Host   : "alphagpu11"
PID    : 2912596
I/O    : uncollated
Case   : /mnt/home/DDN_Copy/rpi/pxu10/criteria/qwen3.5-35b-benchmark/runs/damBreakWithObstacle/3
nProcs : 1
sigFpe : Enabling floating point exception trapping (FOAM_SIGFPE).
fileModificationChecking : Monitoring run-time modified files using timeStampMaster (fileModificationSkew 10)
allowSystemOperations : Allowing user-supplied system call operations

// * * * * * * * * * * * * * * * * * * * * * * * * * * * * * * * * * * * * * //
Create time

Create mesh for time = 0


PIMPLE: No convergence criteria found


PIMPLE: No corrector convergence criteria found
        Calculations will do 2 corrections


PIMPLE: Operating solver in transient mode with 2 outer correctors


Reading field p_rgh

Reading field U

Reading/calculating face flux field phi

Reading phaseProperties



--> FOAM FATAL IO ERROR: 
Illegal dictionary entry or environment variable name "rho1"
Valid dictionary entries are 
3
(
phaseType
transportModel
nu
)


file: /mnt/home/DDN_Copy/rpi/pxu10/criteria/qwen3.5-35b-benchmark/runs/damBreakWithObstacle/3/constant/phaseProperties/phase1/phaseProperties from line 18 to line 11.

    From function bool Foam::primitiveEntry::expandVariable(const Foam::variable&, const Foam::dictionary&)
    in file db/dictionary/primitiveEntry/primitiveEntry.C at line 92.

FOAM exiting

