/*---------------------------------------------------------------------------*\
  =========                 |
  \\      /  F ield         | OpenFOAM: The Open Source CFD Toolbox
   \\    /   O peration     | Website:  https://openfoam.org
    \\  /    A nd           | Version:  10
     \\/     M anipulation  |
\*---------------------------------------------------------------------------*/
Build  : 10
Exec   : subsetMesh -overwrite c0 -patch walls -noFields
Date   : Apr 19 2026
Time   : 03:20:37
Host   : "alphagpu11"
PID    : 2912584
I/O    : uncollated
Case   : /mnt/home/DDN_Copy/rpi/pxu10/criteria/qwen3.5-35b-benchmark/runs/damBreakWithObstacle/3
nProcs : 1
sigFpe : Enabling floating point exception trapping (FOAM_SIGFPE).
fileModificationChecking : Monitoring run-time modified files using timeStampMaster (fileModificationSkew 10)
allowSystemOperations : Allowing user-supplied system call operations

// * * * * * * * * * * * * * * * * * * * * * * * * * * * * * * * * * * * * * //
Create time

Create mesh for time = 0

Reading cell set from c0



--> FOAM FATAL ERROR: 

Valid patches are 
6
(
front
back
bottom
top
left
right
)


    From function int main(int, char**)
    in file subsetMesh.C at line 261.

FOAM exiting

