/*---------------------------------------------------------------------------*\
  =========                 |
  \\      /  F ield         | OpenFOAM: The Open Source CFD Toolbox
   \\    /   O peration     | Website:  https://openfoam.org
    \\  /    A nd           | Version:  10
     \\/     M anipulation  |
\*---------------------------------------------------------------------------*/
Build  : 10
Exec   : pisoFoam
Date   : Mar 02 2026
Time   : 00:08:50
Host   : "alphagpu17"
PID    : 3856606
I/O    : uncollated
Case   : /mnt/home/DDN_Copy/rpi/pxu10/standard/qwen-benchmark/runs/Cavity/2
nProcs : 1
sigFpe : Enabling floating point exception trapping (FOAM_SIGFPE).
fileModificationChecking : Monitoring run-time modified files using timeStampMaster (fileModificationSkew 10)
allowSystemOperations : Allowing user-supplied system call operations

// * * * * * * * * * * * * * * * * * * * * * * * * * * * * * * * * * * * * * //
Create time

Create mesh for time = 0



--> FOAM FATAL IO ERROR: 
keyword PISO is undefined in dictionary "/mnt/home/DDN_Copy/rpi/pxu10/standard/qwen-benchmark/runs/Cavity/2/system/fvSolution"

file: /mnt/home/DDN_Copy/rpi/pxu10/standard/qwen-benchmark/runs/Cavity/2/system/fvSolution from line 14 to line 46.

    From function const Foam::dictionary& Foam::dictionary::subDict(const Foam::word&) const
    in file db/dictionary/dictionary.C at line 1008.

FOAM exiting

