/*---------------------------------------------------------------------------*\
  =========                 |
  \\      /  F ield         | OpenFOAM: The Open Source CFD Toolbox
   \\    /   O peration     | Website:  https://openfoam.org
    \\  /    A nd           | Version:  10
     \\/     M anipulation  |
\*---------------------------------------------------------------------------*/
Build  : 10-c4cf895ad8fa
Exec   : pisoFoam
Date   : Jul 07 2025
Time   : 17:36:34
Host   : "pan"
PID    : 1272065
I/O    : uncollated
Case   : /home/zhangt20/cfdllmbench/FoamBench/Dataset/Basic/Cavity/1/GT_Files
nProcs : 1
sigFpe : Enabling floating point exception trapping (FOAM_SIGFPE).
fileModificationChecking : Monitoring run-time modified files using timeStampMaster (fileModificationSkew 10)
allowSystemOperations : Allowing user-supplied system call operations

// * * * * * * * * * * * * * * * * * * * * * * * * * * * * * * * * * * * * * //
Create time

Create mesh for time = 0

Reading field p

Reading field U

Reading/calculating face flux field phi

Selecting viscosity model constant
Selecting turbulence model type RAS
Selecting RAS turbulence model kEpsilon
RAS
{
    model           kEpsilon;
    turbulence      on;
    printCoeffs     on;
    Cmu             0.09;
    C1              1.44;
    C2              1.92;
    C3              0;
    sigmak          1;
    sigmaEps        1.3;
}

No MRF models present

No fvModels present
No fvConstraints present

Starting time loop

Time = 0.005s

Courant Number mean: 0 max: 0
smoothSolver:  Solving for Ux, Initial residual = 1, Final residual = 1.1324e-06, No Iterations 5
smoothSolver:  Solving for Uy, Initial residual = 1, Final residual = 6.71435e-07, No Iterations 5
GAMG:  Solving for p, Initial residual = 1, Final residual = 0.0378382, No Iterations 2
time step continuity errors : sum local = 5.90272e-06, global = 6.61744e-22, cumulative = 6.61744e-22
GAMG:  Solving for p, Initial residual = 0.0371368, Final residual = 6.05335e-07, No Iterations 10
time step continuity errors : sum local = 2.15891e-10, global = -4.29423e-21, cumulative = -3.63249e-21
smoothSolver:  Solving for epsilon, Initial residual = 0.0321903, Final residual = 4.05266e-06, No Iterations 3
smoothSolver:  Solving for k, Initial residual = 1, Final residual = 9.18966e-07, No Iterations 5
ExecutionTime = 0.006043 s  ClockTime = 0 s

Time = 0.01s

Courant Number mean: 0.000539844 max: 0.00667001
smoothSolver:  Solving for Ux, Initial residual = 0.324843, Final residual = 3.0409e-06, No Iterations 4
smoothSolver:  Solving for Uy, Initial residual = 0.267527, Final residual = 2.20413e-06, No Iterations 4
GAMG:  Solving for p, Initial residual = 0.141522, Final residual = 0.0132441, No Iterations 1
time step continuity errors : sum local = 4.31766e-06, global = 3.39144e-21, cumulative = -2.41046e-22
GAMG:  Solving for p, Initial residual = 0.0132111, Final residual = 8.75421e-07, No Iterations 7
time step continuity errors : sum local = 3.89106e-10, global = 4.74595e-21, cumulative = 4.5049e-21
smoothSolver:  Solving for epsilon, Initial residual = 0.0334225, Final residual = 4.16589e-06, No Iterations 3
smoothSolver:  Solving for k, Initial residual = 0.85477, Final residual = 6.9929e-07, No Iterations 5
ExecutionTime = 0.007019 s  ClockTime = 0 s

Time = 0.015s

Courant Number mean: 0.00102594 max: 0.011772
smoothSolver:  Solving for Ux, Initial residual = 0.185152, Final residual = 1.70493e-06, No Iterations 4
smoothSolver:  Solving for Uy, Initial residual = 0.162812, Final residual = 1.48709e-06, No Iterations 4
GAMG:  Solving for p, Initial residual = 0.0510668, Final residual = 0.00503545, No Iterations 1
time step continuity errors : sum local = 1.78624e-06, global = -4.1359e-22, cumulative = 4.09131e-21
GAMG:  Solving for p, Initial residual = 0.00534976, Final residual = 8.00195e-07, No Iterations 8
time step continuity errors : sum local = 3.26289e-10, global = 7.71604e-22, cumulative = 4.86292e-21
smoothSolver:  Solving for epsilon, Initial residual = 0.0331742, Final residual = 4.13448e-06, No Iterations 3
smoothSolver:  Solving for k, Initial residual = 0.746807, Final residual = 9.77089e-06, No Iterations 4
ExecutionTime = 0.007981 s  ClockTime = 0 s

Time = 0.02s

Courant Number mean: 0.00149103 max: 0.0162955
smoothSolver:  Solving for Ux, Initial residual = 0.130206, Final residual = 1.20687e-06, No Iterations 4
smoothSolver:  Solving for Uy, Initial residual = 0.117051, Final residual = 1.10156e-06, No Iterations 4
GAMG:  Solving for p, Initial residual = 0.0327408, Final residual = 0.00159231, No Iterations 2
time step continuity errors : sum local = 6.00731e-07, global = 5.26294e-21, cumulative = 1.01259e-20
GAMG:  Solving for p, Initial residual = 0.00199814, Final residual = 9.02377e-07, No Iterations 7
time step continuity errors : sum local = 3.67852e-10, global = 2.15946e-20, cumulative = 3.17204e-20
smoothSolver:  Solving for epsilon, Initial residual = 0.0329319, Final residual = 4.10092e-06, No Iterations 3
smoothSolver:  Solving for k, Initial residual = 0.663655, Final residual = 8.64443e-06, No Iterations 4
ExecutionTime = 0.008926 s  ClockTime = 0 s

Time = 0.025s

Courant Number mean: 0.00194684 max: 0.0206771
smoothSolver:  Solving for Ux, Initial residual = 0.100699, Final residual = 9.42044e-07, No Iterations 4
smoothSolver:  Solving for Uy, Initial residual = 0.0916977, Final residual = 8.71419e-07, No Iterations 4
GAMG:  Solving for p, Initial residual = 0.0241815, Final residual = 0.000853352, No Iterations 2
time step continuity errors : sum local = 3.39399e-07, global = 4.89588e-21, cumulative = 3.66163e-20
GAMG:  Solving for p, Initial residual = 0.00108991, Final residual = 5.23777e-07, No Iterations 7
time step continuity errors : sum local = 2.50585e-10, global = 6.8488e-21, cumulative = 4.34651e-20
smoothSolver:  Solving for epsilon, Initial residual = 0.0327084, Final residual = 4.06467e-06, No Iterations 3
smoothSolver:  Solving for k, Initial residual = 0.597467, Final residual = 7.7509e-06, No Iterations 4
ExecutionTime = 0.009869 s  ClockTime = 0 s

Time = 0.03s

Courant Number mean: 0.00239041 max: 0.0248444
smoothSolver:  Solving for Ux, Initial residual = 0.0817102, Final residual = 7.68486e-07, No Iterations 4
smoothSolver:  Solving for Uy, Initial residual = 0.0757124, Final residual = 7.34884e-07, No Iterations 4
GAMG:  Solving for p, Initial residual = 0.0195829, Final residual = 0.000679275, No Iterations 2
time step continuity errors : sum local = 2.81808e-07, global = 4.20311e-21, cumulative = 4.76682e-20
GAMG:  Solving for p, Initial residual = 0.000895097, Final residual = 8.63042e-07, No Iterations 6
time step continuity errors : sum local = 4.36929e-10, global = 1.79731e-20, cumulative = 6.56413e-20
smoothSolver:  Solving for epsilon, Initial residual = 0.0324732, Final residual = 4.02622e-06, No Iterations 3
smoothSolver:  Solving for k, Initial residual = 0.543407, Final residual = 7.0235e-06, No Iterations 4
ExecutionTime = 0.010786 s  ClockTime = 0 s

Time = 0.035s

Courant Number mean: 0.00282222 max: 0.0288196
smoothSolver:  Solving for Ux, Initial residual = 0.0688063, Final residual = 6.50138e-07, No Iterations 4
smoothSolver:  Solving for Uy, Initial residual = 0.0645549, Final residual = 6.3964e-07, No Iterations 4
GAMG:  Solving for p, Initial residual = 0.017075, Final residual = 0.000579547, No Iterations 2
time step continuity errors : sum local = 2.49009e-07, global = -5.60415e-21, cumulative = 6.00372e-20
GAMG:  Solving for p, Initial residual = 0.000801755, Final residual = 7.11297e-07, No Iterations 6
time step continuity errors : sum local = 3.7508e-10, global = -4.48487e-21, cumulative = 5.55523e-20
smoothSolver:  Solving for epsilon, Initial residual = 0.0322092, Final residual = 3.98493e-06, No Iterations 3
smoothSolver:  Solving for k, Initial residual = 0.498108, Final residual = 6.41281e-06, No Iterations 4
ExecutionTime = 0.01171 s  ClockTime = 0 s

Time = 0.04s

Courant Number mean: 0.00324277 max: 0.0326099
smoothSolver:  Solving for Ux, Initial residual = 0.0593791, Final residual = 9.18887e-06, No Iterations 3
smoothSolver:  Solving for Uy, Initial residual = 0.056186, Final residual = 9.24954e-06, No Iterations 3
GAMG:  Solving for p, Initial residual = 0.0176352, Final residual = 0.000509363, No Iterations 2
time step continuity errors : sum local = 2.25135e-07, global = -1.62955e-20, cumulative = 3.92568e-20
GAMG:  Solving for p, Initial residual = 0.000752796, Final residual = 6.36501e-07, No Iterations 6
time step continuity errors : sum local = 3.46407e-10, global = 4.20311e-21, cumulative = 4.34599e-20
smoothSolver:  Solving for epsilon, Initial residual = 0.0319203, Final residual = 3.93996e-06, No Iterations 3
smoothSolver:  Solving for k, Initial residual = 0.459151, Final residual = 5.88846e-06, No Iterations 4
ExecutionTime = 0.012622 s  ClockTime = 0 s

Time = 0.045s

Courant Number mean: 0.00365338 max: 0.0362227
smoothSolver:  Solving for Ux, Initial residual = 0.0521901, Final residual = 8.12083e-06, No Iterations 3
smoothSolver:  Solving for Uy, Initial residual = 0.0496327, Final residual = 8.32976e-06, No Iterations 3
GAMG:  Solving for p, Initial residual = 0.0114456, Final residual = 0.00102792, No Iterations 1
time step continuity errors : sum local = 4.59668e-07, global = 6.82424e-22, cumulative = 4.41424e-20
GAMG:  Solving for p, Initial residual = 0.00112638, Final residual = 7.20376e-07, No Iterations 7
time step continuity errors : sum local = 3.72737e-10, global = 1.46954e-20, cumulative = 5.88377e-20
smoothSolver:  Solving for epsilon, Initial residual = 0.031619, Final residual = 3.89541e-06, No Iterations 3
smoothSolver:  Solving for k, Initial residual = 0.412726, Final residual = 5.27729e-06, No Iterations 4
ExecutionTime = 0.013534 s  ClockTime = 0 s

Time = 0.05s

Courant Number mean: 0.00405941 max: 0.0396654
smoothSolver:  Solving for Ux, Initial residual = 0.0464292, Final residual = 7.27352e-06, No Iterations 3
smoothSolver:  Solving for Uy, Initial residual = 0.0443153, Final residual = 7.6109e-06, No Iterations 3
GAMG:  Solving for p, Initial residual = 0.0133996, Final residual = 0.00023254, No Iterations 2
time step continuity errors : sum local = 1.05842e-07, global = 1.18907e-21, cumulative = 6.00268e-20
GAMG:  Solving for p, Initial residual = 0.00043562, Final residual = 9.41301e-07, No Iterations 5
time step continuity errors : sum local = 5.01325e-10, global = 2.75813e-20, cumulative = 8.76081e-20
smoothSolver:  Solving for epsilon, Initial residual = 0.0313285, Final residual = 3.85185e-06, No Iterations 3
smoothSolver:  Solving for k, Initial residual = 0.363446, Final residual = 4.63361e-06, No Iterations 4
ExecutionTime = 0.014413 s  ClockTime = 0 s

Time = 0.055s

Courant Number mean: 0.00445914 max: 0.0429451
smoothSolver:  Solving for Ux, Initial residual = 0.0417793, Final residual = 6.61023e-06, No Iterations 3
smoothSolver:  Solving for Uy, Initial residual = 0.0398335, Final residual = 7.03861e-06, No Iterations 3
GAMG:  Solving for p, Initial residual = 0.0144646, Final residual = 0.00141995, No Iterations 1
time step continuity errors : sum local = 6.3959e-07, global = -7.34123e-21, cumulative = 8.02669e-20
GAMG:  Solving for p, Initial residual = 0.00149063, Final residual = 4.58039e-07, No Iterations 7
time step continuity errors : sum local = 2.40424e-10, global = -3.53103e-20, cumulative = 4.49566e-20
smoothSolver:  Solving for epsilon, Initial residual = 0.0310216, Final residual = 3.80544e-06, No Iterations 3
smoothSolver:  Solving for k, Initial residual = 0.322349, Final residual = 4.0973e-06, No Iterations 4
ExecutionTime = 0.015322 s  ClockTime = 0 s

Time = 0.06s

Courant Number mean: 0.00485817 max: 0.0460587
smoothSolver:  Solving for Ux, Initial residual = 0.0378927, Final residual = 6.06787e-06, No Iterations 3
smoothSolver:  Solving for Uy, Initial residual = 0.0360008, Final residual = 6.60145e-06, No Iterations 3
GAMG:  Solving for p, Initial residual = 0.0144359, Final residual = 0.0013284, No Iterations 1
time step continuity errors : sum local = 5.97981e-07, global = 1.41034e-20, cumulative = 5.906e-20
GAMG:  Solving for p, Initial residual = 0.00143798, Final residual = 5.66124e-07, No Iterations 7
time step continuity errors : sum local = 2.93935e-10, global = -1.30074e-20, cumulative = 4.60526e-20
smoothSolver:  Solving for epsilon, Initial residual = 0.0306925, Final residual = 3.75903e-06, No Iterations 3
smoothSolver:  Solving for k, Initial residual = 0.289066, Final residual = 3.66441e-06, No Iterations 4
ExecutionTime = 0.016238 s  ClockTime = 0 s

Time = 0.065s

Courant Number mean: 0.00525048 max: 0.048989
smoothSolver:  Solving for Ux, Initial residual = 0.0346418, Final residual = 5.59426e-06, No Iterations 3
smoothSolver:  Solving for Uy, Initial residual = 0.0329923, Final residual = 6.15213e-06, No Iterations 3
GAMG:  Solving for p, Initial residual = 0.0150876, Final residual = 0.00150804, No Iterations 1
time step continuity errors : sum local = 6.77407e-07, global = -5.52763e-20, cumulative = -9.22371e-21
GAMG:  Solving for p, Initial residual = 0.00162642, Final residual = 5.13101e-07, No Iterations 7
time step continuity errors : sum local = 2.65834e-10, global = 3.39351e-20, cumulative = 2.47114e-20
smoothSolver:  Solving for epsilon, Initial residual = 0.0303584, Final residual = 3.71189e-06, No Iterations 3
smoothSolver:  Solving for k, Initial residual = 0.261562, Final residual = 3.30607e-06, No Iterations 4
ExecutionTime = 0.017151 s  ClockTime = 0 s

Time = 0.07s

Courant Number mean: 0.00563633 max: 0.051766
smoothSolver:  Solving for Ux, Initial residual = 0.0318968, Final residual = 5.19054e-06, No Iterations 3
smoothSolver:  Solving for Uy, Initial residual = 0.0304695, Final residual = 5.75248e-06, No Iterations 3
GAMG:  Solving for p, Initial residual = 0.0132364, Final residual = 0.000297175, No Iterations 2
time step continuity errors : sum local = 1.34677e-07, global = 4.56861e-20, cumulative = 7.03974e-20
GAMG:  Solving for p, Initial residual = 0.000539177, Final residual = 8.73946e-07, No Iterations 6
time step continuity errors : sum local = 4.4847e-10, global = 7.78429e-20, cumulative = 1.4824e-19
smoothSolver:  Solving for epsilon, Initial residual = 0.0300126, Final residual = 3.66318e-06, No Iterations 3
smoothSolver:  Solving for k, Initial residual = 0.237896, Final residual = 3.00064e-06, No Iterations 4
ExecutionTime = 0.018062 s  ClockTime = 0 s

Time = 0.075s

Courant Number mean: 0.00601626 max: 0.054397
smoothSolver:  Solving for Ux, Initial residual = 0.0294868, Final residual = 4.83365e-06, No Iterations 3
smoothSolver:  Solving for Uy, Initial residual = 0.0283762, Final residual = 5.40965e-06, No Iterations 3
GAMG:  Solving for p, Initial residual = 0.0148525, Final residual = 0.000337657, No Iterations 2
time step continuity errors : sum local = 1.50251e-07, global = 2.43708e-20, cumulative = 1.72611e-19
GAMG:  Solving for p, Initial residual = 0.000602593, Final residual = 4.9684e-07, No Iterations 7
time step continuity errors : sum local = 2.52926e-10, global = -1.68538e-21, cumulative = 1.70926e-19
smoothSolver:  Solving for epsilon, Initial residual = 0.0296233, Final residual = 3.61062e-06, No Iterations 3
smoothSolver:  Solving for k, Initial residual = 0.21759, Final residual = 2.73969e-06, No Iterations 4
ExecutionTime = 0.018995 s  ClockTime = 0 s

Time = 0.08s

Courant Number mean: 0.00638907 max: 0.0568886
smoothSolver:  Solving for Ux, Initial residual = 0.0274249, Final residual = 4.52641e-06, No Iterations 3
smoothSolver:  Solving for Uy, Initial residual = 0.0265928, Final residual = 5.10885e-06, No Iterations 3
GAMG:  Solving for p, Initial residual = 0.0158337, Final residual = 0.000272064, No Iterations 2
time step continuity errors : sum local = 1.20691e-07, global = -1.51839e-20, cumulative = 1.55742e-19
GAMG:  Solving for p, Initial residual = 0.000573007, Final residual = 4.64933e-07, No Iterations 6
time step continuity errors : sum local = 2.40263e-10, global = -3.49794e-20, cumulative = 1.20762e-19
smoothSolver:  Solving for epsilon, Initial residual = 0.029194, Final residual = 3.55256e-06, No Iterations 3
smoothSolver:  Solving for k, Initial residual = 0.200149, Final residual = 2.51486e-06, No Iterations 4
ExecutionTime = 0.019908 s  ClockTime = 0 s

Time = 0.085s

Courant Number mean: 0.00675573 max: 0.059244
smoothSolver:  Solving for Ux, Initial residual = 0.0256674, Final residual = 4.24328e-06, No Iterations 3
smoothSolver:  Solving for Uy, Initial residual = 0.0248775, Final residual = 4.8208e-06, No Iterations 3
GAMG:  Solving for p, Initial residual = 0.0143334, Final residual = 0.000262983, No Iterations 2
time step continuity errors : sum local = 1.17437e-07, global = 2.69919e-20, cumulative = 1.47754e-19
GAMG:  Solving for p, Initial residual = 0.000537429, Final residual = 7.74206e-07, No Iterations 6
time step continuity errors : sum local = 3.93485e-10, global = -2.1393e-20, cumulative = 1.26361e-19
smoothSolver:  Solving for epsilon, Initial residual = 0.0287602, Final residual = 3.4943e-06, No Iterations 3
smoothSolver:  Solving for k, Initial residual = 0.18503, Final residual = 2.31944e-06, No Iterations 4
ExecutionTime = 0.02082 s  ClockTime = 0 s

Time = 0.09s

Courant Number mean: 0.00711587 max: 0.0614674
smoothSolver:  Solving for Ux, Initial residual = 0.0240848, Final residual = 4.00236e-06, No Iterations 3
smoothSolver:  Solving for Uy, Initial residual = 0.0234153, Final residual = 4.57074e-06, No Iterations 3
GAMG:  Solving for p, Initial residual = 0.0147099, Final residual = 0.000257925, No Iterations 2
time step continuity errors : sum local = 1.14467e-07, global = 5.76131e-20, cumulative = 1.83975e-19
GAMG:  Solving for p, Initial residual = 0.000569704, Final residual = 7.51607e-07, No Iterations 6
time step continuity errors : sum local = 3.81211e-10, global = -7.80652e-21, cumulative = 1.76168e-19
smoothSolver:  Solving for epsilon, Initial residual = 0.0283278, Final residual = 3.43705e-06, No Iterations 3
smoothSolver:  Solving for k, Initial residual = 0.171809, Final residual = 2.14911e-06, No Iterations 4
ExecutionTime = 0.021726 s  ClockTime = 0 s

Time = 0.095s

Courant Number mean: 0.00747094 max: 0.063563
smoothSolver:  Solving for Ux, Initial residual = 0.0227111, Final residual = 3.7903e-06, No Iterations 3
smoothSolver:  Solving for Uy, Initial residual = 0.0220956, Final residual = 4.34607e-06, No Iterations 3
GAMG:  Solving for p, Initial residual = 0.0146006, Final residual = 0.000270069, No Iterations 2
time step continuity errors : sum local = 1.19603e-07, global = -9.33648e-21, cumulative = 1.66832e-19
GAMG:  Solving for p, Initial residual = 0.000579504, Final residual = 6.98419e-07, No Iterations 6
time step continuity errors : sum local = 3.54651e-10, global = 2.9763e-20, cumulative = 1.96594e-19
smoothSolver:  Solving for epsilon, Initial residual = 0.0278968, Final residual = 3.37915e-06, No Iterations 3
smoothSolver:  Solving for k, Initial residual = 0.160138, Final residual = 1.99976e-06, No Iterations 4
ExecutionTime = 0.02263 s  ClockTime = 0 s

Time = 0.1s

Courant Number mean: 0.00782077 max: 0.0655364
smoothSolver:  Solving for Ux, Initial residual = 0.0214912, Final residual = 3.60135e-06, No Iterations 3
smoothSolver:  Solving for Uy, Initial residual = 0.0209201, Final residual = 4.14536e-06, No Iterations 3
GAMG:  Solving for p, Initial residual = 0.0143037, Final residual = 0.000275028, No Iterations 2
time step continuity errors : sum local = 1.21483e-07, global = 7.32604e-21, cumulative = 2.03921e-19
GAMG:  Solving for p, Initial residual = 0.000597378, Final residual = 7.58284e-07, No Iterations 6
time step continuity errors : sum local = 3.8317e-10, global = -4.13849e-20, cumulative = 1.62536e-19
smoothSolver:  Solving for epsilon, Initial residual = 0.0274711, Final residual = 3.32007e-06, No Iterations 3
smoothSolver:  Solving for k, Initial residual = 0.14977, Final residual = 1.86245e-06, No Iterations 4
ExecutionTime = 0.023541 s  ClockTime = 0 s

Time = 0.105s

Courant Number mean: 0.00816489 max: 0.0673957
smoothSolver:  Solving for Ux, Initial residual = 0.0203796, Final residual = 3.42926e-06, No Iterations 3
smoothSolver:  Solving for Uy, Initial residual = 0.0198558, Final residual = 3.96151e-06, No Iterations 3
GAMG:  Solving for p, Initial residual = 0.0143319, Final residual = 0.000281398, No Iterations 2
time step continuity errors : sum local = 1.24121e-07, global = 8.93872e-21, cumulative = 1.71474e-19
GAMG:  Solving for p, Initial residual = 0.000613702, Final residual = 7.75874e-07, No Iterations 6
time step continuity errors : sum local = 3.91084e-10, global = -3.591e-20, cumulative = 1.35564e-19
smoothSolver:  Solving for epsilon, Initial residual = 0.027045, Final residual = 3.26389e-06, No Iterations 3
smoothSolver:  Solving for k, Initial residual = 0.140505, Final residual = 1.74536e-06, No Iterations 4
ExecutionTime = 0.024458 s  ClockTime = 0 s

Time = 0.11s

Courant Number mean: 0.00850353 max: 0.0691485
smoothSolver:  Solving for Ux, Initial residual = 0.0194057, Final residual = 3.2528e-06, No Iterations 3
smoothSolver:  Solving for Uy, Initial residual = 0.0188913, Final residual = 3.73418e-06, No Iterations 3
GAMG:  Solving for p, Initial residual = 0.0168601, Final residual = 0.000359001, No Iterations 2
time step continuity errors : sum local = 1.57551e-07, global = 1.43516e-20, cumulative = 1.49916e-19
GAMG:  Solving for p, Initial residual = 0.000739326, Final residual = 9.78765e-07, No Iterations 6
time step continuity errors : sum local = 4.91253e-10, global = -2.88738e-20, cumulative = 1.21042e-19
smoothSolver:  Solving for epsilon, Initial residual = 0.0266189, Final residual = 3.20722e-06, No Iterations 3
smoothSolver:  Solving for k, Initial residual = 0.13217, Final residual = 1.639e-06, No Iterations 4
ExecutionTime = 0.025359 s  ClockTime = 0 s

Time = 0.115s

Courant Number mean: 0.00883673 max: 0.0707827
smoothSolver:  Solving for Ux, Initial residual = 0.0185365, Final residual = 3.08591e-06, No Iterations 3
smoothSolver:  Solving for Uy, Initial residual = 0.0180235, Final residual = 3.51512e-06, No Iterations 3
GAMG:  Solving for p, Initial residual = 0.017778, Final residual = 0.000385008, No Iterations 2
time step continuity errors : sum local = 1.68619e-07, global = -4.5283e-20, cumulative = 7.57592e-20
GAMG:  Solving for p, Initial residual = 0.000789275, Final residual = 9.97467e-07, No Iterations 6
time step continuity errors : sum local = 5.01176e-10, global = 2.98302e-20, cumulative = 1.05589e-19
smoothSolver:  Solving for epsilon, Initial residual = 0.0262111, Final residual = 3.15233e-06, No Iterations 3
smoothSolver:  Solving for k, Initial residual = 0.12464, Final residual = 1.54176e-06, No Iterations 4
ExecutionTime = 0.026268 s  ClockTime = 0 s

Time = 0.12s

Courant Number mean: 0.00916464 max: 0.0722986
smoothSolver:  Solving for Ux, Initial residual = 0.0177081, Final residual = 2.95635e-06, No Iterations 3
smoothSolver:  Solving for Uy, Initial residual = 0.0172431, Final residual = 3.37646e-06, No Iterations 3
GAMG:  Solving for p, Initial residual = 0.0144052, Final residual = 0.000306694, No Iterations 2
time step continuity errors : sum local = 1.33781e-07, global = -1.35709e-20, cumulative = 9.20185e-20
GAMG:  Solving for p, Initial residual = 0.000685694, Final residual = 6.67094e-07, No Iterations 6
time step continuity errors : sum local = 3.38505e-10, global = 4.50452e-20, cumulative = 1.37064e-19
smoothSolver:  Solving for epsilon, Initial residual = 0.0258069, Final residual = 3.09894e-06, No Iterations 3
smoothSolver:  Solving for k, Initial residual = 0.117807, Final residual = 1.45139e-06, No Iterations 4
ExecutionTime = 0.027177 s  ClockTime = 0 s

Time = 0.125s

Courant Number mean: 0.00948874 max: 0.0737563
smoothSolver:  Solving for Ux, Initial residual = 0.0169271, Final residual = 2.83437e-06, No Iterations 3
smoothSolver:  Solving for Uy, Initial residual = 0.0166704, Final residual = 3.26018e-06, No Iterations 3
GAMG:  Solving for p, Initial residual = 0.016095, Final residual = 0.000454386, No Iterations 2
time step continuity errors : sum local = 1.97388e-07, global = -1.77482e-20, cumulative = 1.19315e-19
GAMG:  Solving for p, Initial residual = 0.000794157, Final residual = 4.59049e-07, No Iterations 7
time step continuity errors : sum local = 2.31073e-10, global = -7.55319e-21, cumulative = 1.11762e-19
smoothSolver:  Solving for epsilon, Initial residual = 0.0254022, Final residual = 3.04424e-06, No Iterations 3
smoothSolver:  Solving for k, Initial residual = 0.111583, Final residual = 1.37227e-06, No Iterations 4
ExecutionTime = 0.028112 s  ClockTime = 0 s

Time = 0.13s

Courant Number mean: 0.00980972 max: 0.0753839
smoothSolver:  Solving for Ux, Initial residual = 0.016188, Final residual = 2.71819e-06, No Iterations 3
smoothSolver:  Solving for Uy, Initial residual = 0.0162831, Final residual = 3.18622e-06, No Iterations 3
GAMG:  Solving for p, Initial residual = 0.0139465, Final residual = 0.00034213, No Iterations 2
time step continuity errors : sum local = 1.48662e-07, global = 4.21836e-20, cumulative = 1.53946e-19
GAMG:  Solving for p, Initial residual = 0.000672159, Final residual = 8.84119e-07, No Iterations 6
time step continuity errors : sum local = 4.41164e-10, global = -2.95665e-20, cumulative = 1.24379e-19
smoothSolver:  Solving for epsilon, Initial residual = 0.0250029, Final residual = 2.99018e-06, No Iterations 3
smoothSolver:  Solving for k, Initial residual = 0.105889, Final residual = 1.30057e-06, No Iterations 4
ExecutionTime = 0.02902 s  ClockTime = 0 s

Time = 0.135s

Courant Number mean: 0.0101312 max: 0.0773737
smoothSolver:  Solving for Ux, Initial residual = 0.0155211, Final residual = 2.61882e-06, No Iterations 3
smoothSolver:  Solving for Uy, Initial residual = 0.0158295, Final residual = 3.1095e-06, No Iterations 3
GAMG:  Solving for p, Initial residual = 0.015798, Final residual = 0.000350282, No Iterations 2
time step continuity errors : sum local = 1.52803e-07, global = 3.23428e-20, cumulative = 1.56722e-19
GAMG:  Solving for p, Initial residual = 0.000680908, Final residual = 8.12947e-07, No Iterations 6
time step continuity errors : sum local = 4.12384e-10, global = 2.42984e-21, cumulative = 1.59152e-19
smoothSolver:  Solving for epsilon, Initial residual = 0.0246092, Final residual = 2.93749e-06, No Iterations 3
smoothSolver:  Solving for k, Initial residual = 0.100665, Final residual = 1.23552e-06, No Iterations 4
ExecutionTime = 0.029931 s  ClockTime = 0 s

Time = 0.14s

Courant Number mean: 0.0104509 max: 0.0792922
smoothSolver:  Solving for Ux, Initial residual = 0.0149069, Final residual = 2.52753e-06, No Iterations 3
smoothSolver:  Solving for Uy, Initial residual = 0.0153904, Final residual = 3.03521e-06, No Iterations 3
GAMG:  Solving for p, Initial residual = 0.0162824, Final residual = 0.000370888, No Iterations 2
time step continuity errors : sum local = 1.61689e-07, global = 5.50851e-20, cumulative = 2.14237e-19
GAMG:  Solving for p, Initial residual = 0.000749209, Final residual = 4.82055e-07, No Iterations 6
time step continuity errors : sum local = 2.46016e-10, global = 3.61013e-20, cumulative = 2.50338e-19
smoothSolver:  Solving for epsilon, Initial residual = 0.0242242, Final residual = 2.88596e-06, No Iterations 3
smoothSolver:  Solving for k, Initial residual = 0.0958581, Final residual = 1.17438e-06, No Iterations 4
ExecutionTime = 0.030838 s  ClockTime = 0 s

Time = 0.145s

Courant Number mean: 0.0107666 max: 0.0811096
smoothSolver:  Solving for Ux, Initial residual = 0.0143064, Final residual = 2.43255e-06, No Iterations 3
smoothSolver:  Solving for Uy, Initial residual = 0.0149858, Final residual = 2.95909e-06, No Iterations 3
GAMG:  Solving for p, Initial residual = 0.0159824, Final residual = 0.000413948, No Iterations 2
time step continuity errors : sum local = 1.80202e-07, global = -4.33624e-20, cumulative = 2.06976e-19
GAMG:  Solving for p, Initial residual = 0.000751296, Final residual = 6.83119e-07, No Iterations 7
time step continuity errors : sum local = 3.37023e-10, global = -9.84862e-21, cumulative = 1.97127e-19
smoothSolver:  Solving for epsilon, Initial residual = 0.0238465, Final residual = 2.83387e-06, No Iterations 3
smoothSolver:  Solving for k, Initial residual = 0.0914197, Final residual = 1.11838e-06, No Iterations 4
ExecutionTime = 0.031768 s  ClockTime = 0 s

Time = 0.15s

Courant Number mean: 0.0110778 max: 0.0829065
smoothSolver:  Solving for Ux, Initial residual = 0.0137625, Final residual = 2.34951e-06, No Iterations 3
smoothSolver:  Solving for Uy, Initial residual = 0.0146268, Final residual = 2.8931e-06, No Iterations 3
GAMG:  Solving for p, Initial residual = 0.013573, Final residual = 0.000272834, No Iterations 2
time step continuity errors : sum local = 1.19478e-07, global = 5.77682e-20, cumulative = 2.54896e-19
GAMG:  Solving for p, Initial residual = 0.000605268, Final residual = 7.40904e-07, No Iterations 6
time step continuity errors : sum local = 3.69675e-10, global = 2.57563e-20, cumulative = 2.80652e-19
smoothSolver:  Solving for epsilon, Initial residual = 0.0234692, Final residual = 2.78119e-06, No Iterations 3
smoothSolver:  Solving for k, Initial residual = 0.0873111, Final residual = 1.06969e-06, No Iterations 4
ExecutionTime = 0.032684 s  ClockTime = 0 s

Time = 0.155s

Courant Number mean: 0.0113854 max: 0.0846716
smoothSolver:  Solving for Ux, Initial residual = 0.0132604, Final residual = 2.27435e-06, No Iterations 3
smoothSolver:  Solving for Uy, Initial residual = 0.0142037, Final residual = 2.82511e-06, No Iterations 3
GAMG:  Solving for p, Initial residual = 0.01306, Final residual = 0.000273124, No Iterations 2
time step continuity errors : sum local = 1.2038e-07, global = -6.7622e-20, cumulative = 2.1303e-19
GAMG:  Solving for p, Initial residual = 0.000584701, Final residual = 7.82723e-07, No Iterations 6
time step continuity errors : sum local = 3.92067e-10, global = -6.8139e-21, cumulative = 2.06216e-19
smoothSolver:  Solving for epsilon, Initial residual = 0.0231204, Final residual = 2.7304e-06, No Iterations 3
smoothSolver:  Solving for k, Initial residual = 0.0835055, Final residual = 1.02404e-06, No Iterations 4
ExecutionTime = 0.033594 s  ClockTime = 0 s

Time = 0.16s

Courant Number mean: 0.0116891 max: 0.0864059
smoothSolver:  Solving for Ux, Initial residual = 0.0127832, Final residual = 2.20337e-06, No Iterations 3
smoothSolver:  Solving for Uy, Initial residual = 0.0138075, Final residual = 2.76252e-06, No Iterations 3
GAMG:  Solving for p, Initial residual = 0.0131905, Final residual = 0.00026056, No Iterations 2
time step continuity errors : sum local = 1.15608e-07, global = -3.5879e-20, cumulative = 1.70337e-19
GAMG:  Solving for p, Initial residual = 0.000574886, Final residual = 7.32501e-07, No Iterations 6
time step continuity errors : sum local = 3.6908e-10, global = -9.6625e-20, cumulative = 7.3712e-20
smoothSolver:  Solving for epsilon, Initial residual = 0.0228074, Final residual = 2.67995e-06, No Iterations 3
smoothSolver:  Solving for k, Initial residual = 0.0799917, Final residual = 9.78288e-07, No Iterations 4
ExecutionTime = 0.034498 s  ClockTime = 0 s

Time = 0.165s

Courant Number mean: 0.0119891 max: 0.0881105
smoothSolver:  Solving for Ux, Initial residual = 0.0123371, Final residual = 2.13907e-06, No Iterations 3
smoothSolver:  Solving for Uy, Initial residual = 0.0134407, Final residual = 2.70297e-06, No Iterations 3
GAMG:  Solving for p, Initial residual = 0.0132913, Final residual = 0.000255067, No Iterations 2
time step continuity errors : sum local = 1.13981e-07, global = 3.49484e-20, cumulative = 1.0866e-19
GAMG:  Solving for p, Initial residual = 0.000568074, Final residual = 7.57388e-07, No Iterations 6
time step continuity errors : sum local = 3.8338e-10, global = -2.18479e-20, cumulative = 8.68124e-20
smoothSolver:  Solving for epsilon, Initial residual = 0.0225007, Final residual = 2.63118e-06, No Iterations 3
smoothSolver:  Solving for k, Initial residual = 0.0767217, Final residual = 9.37385e-07, No Iterations 4
ExecutionTime = 0.035392 s  ClockTime = 0 s

Time = 0.17s

Courant Number mean: 0.0122854 max: 0.0897891
smoothSolver:  Solving for Ux, Initial residual = 0.0119276, Final residual = 2.07479e-06, No Iterations 3
smoothSolver:  Solving for Uy, Initial residual = 0.0130831, Final residual = 2.63699e-06, No Iterations 3
GAMG:  Solving for p, Initial residual = 0.0140334, Final residual = 0.00025794, No Iterations 2
time step continuity errors : sum local = 1.16039e-07, global = -1.00182e-19, cumulative = -1.33695e-20
GAMG:  Solving for p, Initial residual = 0.000566713, Final residual = 8.12805e-07, No Iterations 6
time step continuity errors : sum local = 4.1307e-10, global = 1.33869e-19, cumulative = 1.20499e-19
smoothSolver:  Solving for epsilon, Initial residual = 0.022196, Final residual = 2.58173e-06, No Iterations 3
smoothSolver:  Solving for k, Initial residual = 0.0736768, Final residual = 8.99474e-07, No Iterations 4
ExecutionTime = 0.03631 s  ClockTime = 0 s

Time = 0.175s

Courant Number mean: 0.0125783 max: 0.091448
smoothSolver:  Solving for Ux, Initial residual = 0.0115452, Final residual = 2.01459e-06, No Iterations 3
smoothSolver:  Solving for Uy, Initial residual = 0.0127247, Final residual = 2.56928e-06, No Iterations 3
GAMG:  Solving for p, Initial residual = 0.0143538, Final residual = 0.000257501, No Iterations 2
time step continuity errors : sum local = 1.16833e-07, global = -6.52129e-20, cumulative = 5.52865e-20
GAMG:  Solving for p, Initial residual = 0.000567702, Final residual = 8.15656e-07, No Iterations 6
time step continuity errors : sum local = 4.18006e-10, global = 6.46855e-20, cumulative = 1.19972e-19
smoothSolver:  Solving for epsilon, Initial residual = 0.0218936, Final residual = 2.53312e-06, No Iterations 3
smoothSolver:  Solving for k, Initial residual = 0.070856, Final residual = 8.63153e-07, No Iterations 4
ExecutionTime = 0.037214 s  ClockTime = 0 s

Time = 0.18s

Courant Number mean: 0.0128677 max: 0.0930922
smoothSolver:  Solving for Ux, Initial residual = 0.0111859, Final residual = 1.95747e-06, No Iterations 3
smoothSolver:  Solving for Uy, Initial residual = 0.0123735, Final residual = 2.50234e-06, No Iterations 3
GAMG:  Solving for p, Initial residual = 0.0146134, Final residual = 0.000304567, No Iterations 2
time step continuity errors : sum local = 1.38762e-07, global = 8.5851e-20, cumulative = 2.05823e-19
GAMG:  Solving for p, Initial residual = 0.000579751, Final residual = 5.22148e-07, No Iterations 7
time step continuity errors : sum local = 2.68776e-10, global = 7.4591e-20, cumulative = 2.80414e-19
smoothSolver:  Solving for epsilon, Initial residual = 0.0216036, Final residual = 2.48754e-06, No Iterations 3
smoothSolver:  Solving for k, Initial residual = 0.0682764, Final residual = 8.29698e-07, No Iterations 4
ExecutionTime = 0.038139 s  ClockTime = 0 s

Time = 0.185s

Courant Number mean: 0.0131555 max: 0.094727
smoothSolver:  Solving for Ux, Initial residual = 0.0108528, Final residual = 1.9021e-06, No Iterations 3
smoothSolver:  Solving for Uy, Initial residual = 0.01209, Final residual = 2.44297e-06, No Iterations 3
GAMG:  Solving for p, Initial residual = 0.0133714, Final residual = 0.00025643, No Iterations 2
time step continuity errors : sum local = 1.18446e-07, global = 3.04816e-20, cumulative = 3.10896e-19
GAMG:  Solving for p, Initial residual = 0.000530076, Final residual = 9.61932e-07, No Iterations 6
time step continuity errors : sum local = 5.0135e-10, global = -3.5879e-21, cumulative = 3.07308e-19
smoothSolver:  Solving for epsilon, Initial residual = 0.0213038, Final residual = 2.43997e-06, No Iterations 3
smoothSolver:  Solving for k, Initial residual = 0.0658642, Final residual = 8.00195e-07, No Iterations 4
ExecutionTime = 0.039046 s  ClockTime = 0 s

Time = 0.19s

Courant Number mean: 0.0134411 max: 0.0963525
smoothSolver:  Solving for Ux, Initial residual = 0.0105421, Final residual = 1.85064e-06, No Iterations 3
smoothSolver:  Solving for Uy, Initial residual = 0.0117912, Final residual = 2.38239e-06, No Iterations 3
GAMG:  Solving for p, Initial residual = 0.0119955, Final residual = 0.00031874, No Iterations 2
time step continuity errors : sum local = 1.48263e-07, global = -5.90504e-20, cumulative = 2.48257e-19
GAMG:  Solving for p, Initial residual = 0.000670441, Final residual = 5.9683e-07, No Iterations 7
time step continuity errors : sum local = 3.14682e-10, global = -8.25009e-20, cumulative = 1.65756e-19
smoothSolver:  Solving for epsilon, Initial residual = 0.0210038, Final residual = 2.39015e-06, No Iterations 3
smoothSolver:  Solving for k, Initial residual = 0.0635822, Final residual = 7.70846e-07, No Iterations 4
ExecutionTime = 0.03998 s  ClockTime = 0 s

Time = 0.195s

Courant Number mean: 0.0137233 max: 0.0978896
smoothSolver:  Solving for Ux, Initial residual = 0.0102416, Final residual = 1.80401e-06, No Iterations 3
smoothSolver:  Solving for Uy, Initial residual = 0.0115729, Final residual = 2.33225e-06, No Iterations 3
GAMG:  Solving for p, Initial residual = 0.0108708, Final residual = 0.000278992, No Iterations 2
time step continuity errors : sum local = 1.31495e-07, global = 5.05614e-20, cumulative = 2.16318e-19
GAMG:  Solving for p, Initial residual = 0.000566968, Final residual = 9.61129e-07, No Iterations 6
time step continuity errors : sum local = 5.11805e-10, global = 5.58967e-20, cumulative = 2.72215e-19
smoothSolver:  Solving for epsilon, Initial residual = 0.0207052, Final residual = 2.3441e-06, No Iterations 3
smoothSolver:  Solving for k, Initial residual = 0.0614252, Final residual = 7.41578e-07, No Iterations 4
ExecutionTime = 0.04089 s  ClockTime = 0 s

Time = 0.2s

Courant Number mean: 0.0140022 max: 0.0993878
smoothSolver:  Solving for Ux, Initial residual = 0.00995715, Final residual = 1.75947e-06, No Iterations 3
smoothSolver:  Solving for Uy, Initial residual = 0.0113233, Final residual = 2.2803e-06, No Iterations 3
GAMG:  Solving for p, Initial residual = 0.011203, Final residual = 0.000263113, No Iterations 2
time step continuity errors : sum local = 1.25279e-07, global = 1.13655e-19, cumulative = 3.85869e-19
GAMG:  Solving for p, Initial residual = 0.000527429, Final residual = 6.6081e-07, No Iterations 6
time step continuity errors : sum local = 3.55396e-10, global = 1.19248e-19, cumulative = 5.05118e-19
smoothSolver:  Solving for epsilon, Initial residual = 0.0204087, Final residual = 2.3003e-06, No Iterations 3
smoothSolver:  Solving for k, Initial residual = 0.0593872, Final residual = 7.15362e-07, No Iterations 4
ExecutionTime = 0.041814 s  ClockTime = 0 s

Time = 0.205s

Courant Number mean: 0.0142781 max: 0.100866
smoothSolver:  Solving for Ux, Initial residual = 0.00971184, Final residual = 1.72408e-06, No Iterations 3
smoothSolver:  Solving for Uy, Initial residual = 0.011033, Final residual = 2.22299e-06, No Iterations 3
GAMG:  Solving for p, Initial residual = 0.0111529, Final residual = 0.000283537, No Iterations 2
time step continuity errors : sum local = 1.3508e-07, global = -9.71937e-20, cumulative = 4.07924e-19
GAMG:  Solving for p, Initial residual = 0.000550081, Final residual = 6.58968e-07, No Iterations 6
time step continuity errors : sum local = 3.551e-10, global = 5.91124e-20, cumulative = 4.67036e-19
smoothSolver:  Solving for epsilon, Initial residual = 0.0201124, Final residual = 2.25694e-06, No Iterations 3
smoothSolver:  Solving for k, Initial residual = 0.0574591, Final residual = 6.9038e-07, No Iterations 4
ExecutionTime = 0.042721 s  ClockTime = 0 s

Time = 0.21s

Courant Number mean: 0.0145544 max: 0.102312
smoothSolver:  Solving for Ux, Initial residual = 0.00947933, Final residual = 1.69563e-06, No Iterations 3
smoothSolver:  Solving for Uy, Initial residual = 0.0107604, Final residual = 2.17117e-06, No Iterations 3
GAMG:  Solving for p, Initial residual = 0.0110108, Final residual = 0.000278583, No Iterations 2
time step continuity errors : sum local = 1.33307e-07, global = -1.25525e-20, cumulative = 4.54484e-19
GAMG:  Solving for p, Initial residual = 0.000548791, Final residual = 7.33086e-07, No Iterations 6
time step continuity errors : sum local = 3.9703e-10, global = -1.09974e-19, cumulative = 3.4451e-19
smoothSolver:  Solving for epsilon, Initial residual = 0.0198153, Final residual = 2.21398e-06, No Iterations 3
smoothSolver:  Solving for k, Initial residual = 0.0556318, Final residual = 6.66683e-07, No Iterations 4
ExecutionTime = 0.04363 s  ClockTime = 0 s

Time = 0.215s

Courant Number mean: 0.0148284 max: 0.103711
smoothSolver:  Solving for Ux, Initial residual = 0.0092465, Final residual = 1.6568e-06, No Iterations 3
smoothSolver:  Solving for Uy, Initial residual = 0.0105286, Final residual = 2.12395e-06, No Iterations 3
GAMG:  Solving for p, Initial residual = 0.0115559, Final residual = 0.000276646, No Iterations 2
time step continuity errors : sum local = 1.3329e-07, global = 3.31699e-20, cumulative = 3.7768e-19
GAMG:  Solving for p, Initial residual = 0.000548699, Final residual = 7.10031e-07, No Iterations 6
time step continuity errors : sum local = 3.87792e-10, global = 1.00637e-19, cumulative = 4.78317e-19
smoothSolver:  Solving for epsilon, Initial residual = 0.0195197, Final residual = 2.17e-06, No Iterations 3
smoothSolver:  Solving for k, Initial residual = 0.053898, Final residual = 6.44642e-07, No Iterations 4
ExecutionTime = 0.044547 s  ClockTime = 0 s

Time = 0.22s

Courant Number mean: 0.0150991 max: 0.10507
smoothSolver:  Solving for Ux, Initial residual = 0.00902146, Final residual = 1.61479e-06, No Iterations 3
smoothSolver:  Solving for Uy, Initial residual = 0.0102991, Final residual = 2.0782e-06, No Iterations 3
GAMG:  Solving for p, Initial residual = 0.0112215, Final residual = 0.000265883, No Iterations 2
time step continuity errors : sum local = 1.29198e-07, global = 4.06559e-20, cumulative = 5.18973e-19
GAMG:  Solving for p, Initial residual = 0.000526966, Final residual = 8.89414e-07, No Iterations 6
time step continuity errors : sum local = 4.86316e-10, global = 1.03191e-19, cumulative = 6.22164e-19
smoothSolver:  Solving for epsilon, Initial residual = 0.0192238, Final residual = 2.12739e-06, No Iterations 3
smoothSolver:  Solving for k, Initial residual = 0.0522439, Final residual = 9.91339e-06, No Iterations 3
ExecutionTime = 0.045448 s  ClockTime = 0 s

Time = 0.225s

Courant Number mean: 0.0153741 max: 0.106394
smoothSolver:  Solving for Ux, Initial residual = 0.00880104, Final residual = 1.58183e-06, No Iterations 3
smoothSolver:  Solving for Uy, Initial residual = 0.0101095, Final residual = 2.04299e-06, No Iterations 3
GAMG:  Solving for p, Initial residual = 0.0111286, Final residual = 0.000290532, No Iterations 2
time step continuity errors : sum local = 1.42527e-07, global = -1.25752e-19, cumulative = 4.96412e-19
GAMG:  Solving for p, Initial residual = 0.000587466, Final residual = 7.48243e-07, No Iterations 6
time step continuity errors : sum local = 4.14285e-10, global = -2.54151e-20, cumulative = 4.70996e-19
smoothSolver:  Solving for epsilon, Initial residual = 0.0189416, Final residual = 2.08675e-06, No Iterations 3
smoothSolver:  Solving for k, Initial residual = 0.0506666, Final residual = 9.60748e-06, No Iterations 3
ExecutionTime = 0.046338 s  ClockTime = 0 s

Time = 0.23s

Courant Number mean: 0.0156472 max: 0.10768
smoothSolver:  Solving for Ux, Initial residual = 0.00858693, Final residual = 1.55269e-06, No Iterations 3
smoothSolver:  Solving for Uy, Initial residual = 0.00991902, Final residual = 2.01407e-06, No Iterations 3
GAMG:  Solving for p, Initial residual = 0.0146125, Final residual = 0.000377285, No Iterations 2
time step continuity errors : sum local = 1.82479e-07, global = -7.7238e-20, cumulative = 3.93758e-19
GAMG:  Solving for p, Initial residual = 0.000788482, Final residual = 6.03258e-07, No Iterations 7
time step continuity errors : sum local = 3.29543e-10, global = 2.70281e-20, cumulative = 4.20787e-19
smoothSolver:  Solving for epsilon, Initial residual = 0.0186449, Final residual = 2.04627e-06, No Iterations 3
smoothSolver:  Solving for k, Initial residual = 0.0491447, Final residual = 9.33967e-06, No Iterations 3
ExecutionTime = 0.047262 s  ClockTime = 0 s

Time = 0.235s

Courant Number mean: 0.0159184 max: 0.108822
smoothSolver:  Solving for Ux, Initial residual = 0.00838007, Final residual = 1.5249e-06, No Iterations 3
smoothSolver:  Solving for Uy, Initial residual = 0.00982336, Final residual = 1.99786e-06, No Iterations 3
GAMG:  Solving for p, Initial residual = 0.00981111, Final residual = 0.000261637, No Iterations 2
time step continuity errors : sum local = 1.2763e-07, global = 2.02452e-20, cumulative = 4.41032e-19
GAMG:  Solving for p, Initial residual = 0.00053685, Final residual = 6.20298e-07, No Iterations 6
time step continuity errors : sum local = 3.41236e-10, global = 1.6647e-21, cumulative = 4.42697e-19
smoothSolver:  Solving for epsilon, Initial residual = 0.0183638, Final residual = 2.00693e-06, No Iterations 3
smoothSolver:  Solving for k, Initial residual = 0.0476864, Final residual = 8.89449e-06, No Iterations 3
ExecutionTime = 0.048171 s  ClockTime = 0 s

Time = 0.24s

Courant Number mean: 0.0161863 max: 0.109958
smoothSolver:  Solving for Ux, Initial residual = 0.00818665, Final residual = 1.49078e-06, No Iterations 3
smoothSolver:  Solving for Uy, Initial residual = 0.00962397, Final residual = 1.96627e-06, No Iterations 3
GAMG:  Solving for p, Initial residual = 0.00949223, Final residual = 0.000258372, No Iterations 2
time step continuity errors : sum local = 1.26493e-07, global = -6.30725e-21, cumulative = 4.36389e-19
GAMG:  Solving for p, Initial residual = 0.000534118, Final residual = 6.79536e-07, No Iterations 6
time step continuity errors : sum local = 3.74828e-10, global = 3.03782e-20, cumulative = 4.66768e-19
smoothSolver:  Solving for epsilon, Initial residual = 0.0180716, Final residual = 1.96787e-06, No Iterations 3
smoothSolver:  Solving for k, Initial residual = 0.0462875, Final residual = 8.60527e-06, No Iterations 3
ExecutionTime = 0.04908 s  ClockTime = 0 s

Time = 0.245s

Courant Number mean: 0.0164513 max: 0.111082
smoothSolver:  Solving for Ux, Initial residual = 0.00799836, Final residual = 1.46743e-06, No Iterations 3
smoothSolver:  Solving for Uy, Initial residual = 0.00943822, Final residual = 1.93722e-06, No Iterations 3
GAMG:  Solving for p, Initial residual = 0.0100703, Final residual = 0.000262137, No Iterations 2
time step continuity errors : sum local = 1.28732e-07, global = -5.2526e-20, cumulative = 4.14242e-19
GAMG:  Solving for p, Initial residual = 0.000537778, Final residual = 6.31334e-07, No Iterations 6
time step continuity errors : sum local = 3.49628e-10, global = 4.49779e-20, cumulative = 4.59219e-19
smoothSolver:  Solving for epsilon, Initial residual = 0.0177799, Final residual = 1.92752e-06, No Iterations 3
smoothSolver:  Solving for k, Initial residual = 0.044949, Final residual = 8.33657e-06, No Iterations 3
ExecutionTime = 0.049987 s  ClockTime = 0 s

Time = 0.25s

Courant Number mean: 0.016713 max: 0.112193
smoothSolver:  Solving for Ux, Initial residual = 0.00781926, Final residual = 1.44784e-06, No Iterations 3
smoothSolver:  Solving for Uy, Initial residual = 0.00925476, Final residual = 1.90778e-06, No Iterations 3
GAMG:  Solving for p, Initial residual = 0.0149618, Final residual = 0.000309508, No Iterations 2
time step continuity errors : sum local = 1.50687e-07, global = 1.90562e-20, cumulative = 4.78276e-19
GAMG:  Solving for p, Initial residual = 0.000632756, Final residual = 5.77575e-07, No Iterations 6
time step continuity errors : sum local = 3.17503e-10, global = 7.35364e-20, cumulative = 5.51812e-19
smoothSolver:  Solving for epsilon, Initial residual = 0.0174857, Final residual = 1.8884e-06, No Iterations 3
smoothSolver:  Solving for k, Initial residual = 0.0436687, Final residual = 8.08035e-06, No Iterations 3
ExecutionTime = 0.050895 s  ClockTime = 0 s

Time = 0.255s

Courant Number mean: 0.016971 max: 0.1133
smoothSolver:  Solving for Ux, Initial residual = 0.00766588, Final residual = 1.439e-06, No Iterations 3
smoothSolver:  Solving for Uy, Initial residual = 0.00904832, Final residual = 1.87341e-06, No Iterations 3
GAMG:  Solving for p, Initial residual = 0.0111855, Final residual = 0.000258955, No Iterations 2
time step continuity errors : sum local = 1.26946e-07, global = 8.24751e-20, cumulative = 6.34287e-19
GAMG:  Solving for p, Initial residual = 0.000628108, Final residual = 9.29613e-07, No Iterations 6
time step continuity errors : sum local = 5.12686e-10, global = 9.78917e-20, cumulative = 7.32179e-19
smoothSolver:  Solving for epsilon, Initial residual = 0.0171781, Final residual = 1.84949e-06, No Iterations 3
smoothSolver:  Solving for k, Initial residual = 0.0424454, Final residual = 7.86591e-06, No Iterations 3
ExecutionTime = 0.051804 s  ClockTime = 0 s

Time = 0.26s

Courant Number mean: 0.0172273 max: 0.114363
smoothSolver:  Solving for Ux, Initial residual = 0.00748462, Final residual = 1.4111e-06, No Iterations 3
smoothSolver:  Solving for Uy, Initial residual = 0.0089371, Final residual = 1.85633e-06, No Iterations 3
GAMG:  Solving for p, Initial residual = 0.010954, Final residual = 0.000257749, No Iterations 2
time step continuity errors : sum local = 1.27012e-07, global = -1.84254e-20, cumulative = 7.13753e-19
GAMG:  Solving for p, Initial residual = 0.000528602, Final residual = 6.75555e-07, No Iterations 6
time step continuity errors : sum local = 3.7411e-10, global = -1.00813e-20, cumulative = 7.03672e-19
smoothSolver:  Solving for epsilon, Initial residual = 0.0168579, Final residual = 1.80855e-06, No Iterations 3
smoothSolver:  Solving for k, Initial residual = 0.0412725, Final residual = 7.62559e-06, No Iterations 3
ExecutionTime = 0.05271 s  ClockTime = 0 s

Time = 0.265s

Courant Number mean: 0.0174808 max: 0.115417
smoothSolver:  Solving for Ux, Initial residual = 0.00733528, Final residual = 1.39243e-06, No Iterations 3
smoothSolver:  Solving for Uy, Initial residual = 0.0087789, Final residual = 1.82962e-06, No Iterations 3
GAMG:  Solving for p, Initial residual = 0.00917264, Final residual = 0.000247233, No Iterations 2
time step continuity errors : sum local = 1.22339e-07, global = 1.81049e-20, cumulative = 7.21777e-19
GAMG:  Solving for p, Initial residual = 0.000537289, Final residual = 7.93833e-07, No Iterations 6
time step continuity errors : sum local = 4.4123e-10, global = 8.70814e-20, cumulative = 8.08858e-19
smoothSolver:  Solving for epsilon, Initial residual = 0.0165634, Final residual = 1.77244e-06, No Iterations 3
smoothSolver:  Solving for k, Initial residual = 0.040142, Final residual = 7.30721e-06, No Iterations 3
ExecutionTime = 0.053615 s  ClockTime = 0 s

Time = 0.27s

Courant Number mean: 0.0177321 max: 0.116447
smoothSolver:  Solving for Ux, Initial residual = 0.00718859, Final residual = 1.37031e-06, No Iterations 3
smoothSolver:  Solving for Uy, Initial residual = 0.00864568, Final residual = 1.80875e-06, No Iterations 3
GAMG:  Solving for p, Initial residual = 0.00950002, Final residual = 0.000244215, No Iterations 2
time step continuity errors : sum local = 1.21473e-07, global = -4.96308e-22, cumulative = 8.08362e-19
GAMG:  Solving for p, Initial residual = 0.000515631, Final residual = 6.67372e-07, No Iterations 6
time step continuity errors : sum local = 3.73812e-10, global = -6.35688e-20, cumulative = 7.44793e-19
smoothSolver:  Solving for epsilon, Initial residual = 0.0162654, Final residual = 1.73657e-06, No Iterations 3
smoothSolver:  Solving for k, Initial residual = 0.0390469, Final residual = 7.09428e-06, No Iterations 3
ExecutionTime = 0.054519 s  ClockTime = 0 s

Time = 0.275s

Courant Number mean: 0.0179805 max: 0.11746
smoothSolver:  Solving for Ux, Initial residual = 0.00705178, Final residual = 1.34579e-06, No Iterations 3
smoothSolver:  Solving for Uy, Initial residual = 0.0085, Final residual = 1.78444e-06, No Iterations 3
GAMG:  Solving for p, Initial residual = 0.0091361, Final residual = 0.000239954, No Iterations 2
time step continuity errors : sum local = 1.20003e-07, global = 1.71846e-20, cumulative = 7.61978e-19
GAMG:  Solving for p, Initial residual = 0.000506435, Final residual = 7.22678e-07, No Iterations 6
time step continuity errors : sum local = 4.05979e-10, global = 1.14771e-20, cumulative = 7.73455e-19
smoothSolver:  Solving for epsilon, Initial residual = 0.0159732, Final residual = 1.70126e-06, No Iterations 3
smoothSolver:  Solving for k, Initial residual = 0.0379927, Final residual = 6.88184e-06, No Iterations 3
ExecutionTime = 0.055414 s  ClockTime = 0 s

Time = 0.28s

Courant Number mean: 0.0182263 max: 0.118451
smoothSolver:  Solving for Ux, Initial residual = 0.00691647, Final residual = 1.33428e-06, No Iterations 3
smoothSolver:  Solving for Uy, Initial residual = 0.00836345, Final residual = 1.75494e-06, No Iterations 3
GAMG:  Solving for p, Initial residual = 0.00917415, Final residual = 0.00023684, No Iterations 2
time step continuity errors : sum local = 1.19195e-07, global = 5.12852e-21, cumulative = 7.78584e-19
GAMG:  Solving for p, Initial residual = 0.000491359, Final residual = 7.38186e-07, No Iterations 6
time step continuity errors : sum local = 4.16627e-10, global = 8.46516e-20, cumulative = 8.63235e-19
smoothSolver:  Solving for epsilon, Initial residual = 0.0156911, Final residual = 1.66329e-06, No Iterations 3
smoothSolver:  Solving for k, Initial residual = 0.0369726, Final residual = 6.67392e-06, No Iterations 3
ExecutionTime = 0.056321 s  ClockTime = 0 s

Time = 0.285s

Courant Number mean: 0.0184694 max: 0.119412
smoothSolver:  Solving for Ux, Initial residual = 0.0067864, Final residual = 1.30218e-06, No Iterations 3
smoothSolver:  Solving for Uy, Initial residual = 0.00822576, Final residual = 1.70023e-06, No Iterations 3
GAMG:  Solving for p, Initial residual = 0.0085943, Final residual = 0.000218586, No Iterations 2
time step continuity errors : sum local = 1.11031e-07, global = 1.92009e-20, cumulative = 8.82436e-19
GAMG:  Solving for p, Initial residual = 0.000466144, Final residual = 6.13666e-07, No Iterations 6
time step continuity errors : sum local = 3.49629e-10, global = -8.00194e-20, cumulative = 8.02417e-19
smoothSolver:  Solving for epsilon, Initial residual = 0.015415, Final residual = 1.6289e-06, No Iterations 3
smoothSolver:  Solving for k, Initial residual = 0.0359895, Final residual = 6.48379e-06, No Iterations 3
ExecutionTime = 0.057225 s  ClockTime = 0 s

Time = 0.29s

Courant Number mean: 0.0187105 max: 0.120572
smoothSolver:  Solving for Ux, Initial residual = 0.00666053, Final residual = 1.28347e-06, No Iterations 3
smoothSolver:  Solving for Uy, Initial residual = 0.00809078, Final residual = 1.67744e-06, No Iterations 3
GAMG:  Solving for p, Initial residual = 0.0108041, Final residual = 0.000312409, No Iterations 2
time step continuity errors : sum local = 1.56773e-07, global = -4.10178e-20, cumulative = 7.61399e-19
GAMG:  Solving for p, Initial residual = 0.000605078, Final residual = 6.25638e-07, No Iterations 6
time step continuity errors : sum local = 3.57456e-10, global = 2.90134e-20, cumulative = 7.90412e-19
smoothSolver:  Solving for epsilon, Initial residual = 0.0151445, Final residual = 1.59412e-06, No Iterations 3
smoothSolver:  Solving for k, Initial residual = 0.0350459, Final residual = 6.29852e-06, No Iterations 3
ExecutionTime = 0.058133 s  ClockTime = 0 s

Time = 0.295s

Courant Number mean: 0.01895 max: 0.121866
smoothSolver:  Solving for Ux, Initial residual = 0.00653344, Final residual = 1.26413e-06, No Iterations 3
smoothSolver:  Solving for Uy, Initial residual = 0.00798621, Final residual = 1.65607e-06, No Iterations 3
GAMG:  Solving for p, Initial residual = 0.00938995, Final residual = 0.000256142, No Iterations 2
time step continuity errors : sum local = 1.29924e-07, global = -1.46938e-19, cumulative = 6.43474e-19
GAMG:  Solving for p, Initial residual = 0.000517438, Final residual = 7.23922e-07, No Iterations 6
time step continuity errors : sum local = 4.13818e-10, global = -4.16434e-21, cumulative = 6.3931e-19
smoothSolver:  Solving for epsilon, Initial residual = 0.0148795, Final residual = 1.55895e-06, No Iterations 3
smoothSolver:  Solving for k, Initial residual = 0.0341461, Final residual = 6.12239e-06, No Iterations 3
ExecutionTime = 0.05904 s  ClockTime = 0 s

Time = 0.3s

Courant Number mean: 0.0191873 max: 0.123142
smoothSolver:  Solving for Ux, Initial residual = 0.00641182, Final residual = 1.26662e-06, No Iterations 3
smoothSolver:  Solving for Uy, Initial residual = 0.00787111, Final residual = 1.63538e-06, No Iterations 3
GAMG:  Solving for p, Initial residual = 0.00938837, Final residual = 0.000238294, No Iterations 2
time step continuity errors : sum local = 1.2188e-07, global = 1.70802e-19, cumulative = 8.10112e-19
GAMG:  Solving for p, Initial residual = 0.00051207, Final residual = 7.55377e-07, No Iterations 6
time step continuity errors : sum local = 4.33809e-10, global = 2.65525e-20, cumulative = 8.36665e-19
smoothSolver:  Solving for epsilon, Initial residual = 0.0146329, Final residual = 1.52652e-06, No Iterations 3
smoothSolver:  Solving for k, Initial residual = 0.0332886, Final residual = 5.97667e-06, No Iterations 3
ExecutionTime = 0.059951 s  ClockTime = 0 s

Time = 0.305s

Courant Number mean: 0.0194226 max: 0.124411
smoothSolver:  Solving for Ux, Initial residual = 0.00629496, Final residual = 1.2627e-06, No Iterations 3
smoothSolver:  Solving for Uy, Initial residual = 0.00775666, Final residual = 1.61525e-06, No Iterations 3
GAMG:  Solving for p, Initial residual = 0.00925056, Final residual = 0.000235464, No Iterations 2
time step continuity errors : sum local = 1.21195e-07, global = 3.36663e-20, cumulative = 8.70331e-19
GAMG:  Solving for p, Initial residual = 0.00049517, Final residual = 7.93737e-07, No Iterations 6
time step continuity errors : sum local = 4.57947e-10, global = -1.25514e-19, cumulative = 7.44816e-19
smoothSolver:  Solving for epsilon, Initial residual = 0.0143809, Final residual = 1.49328e-06, No Iterations 3
smoothSolver:  Solving for k, Initial residual = 0.0324629, Final residual = 5.82356e-06, No Iterations 3
ExecutionTime = 0.060858 s  ClockTime = 0 s

Time = 0.31s

Courant Number mean: 0.0196554 max: 0.125672
smoothSolver:  Solving for Ux, Initial residual = 0.00618099, Final residual = 1.27025e-06, No Iterations 3
smoothSolver:  Solving for Uy, Initial residual = 0.00764516, Final residual = 1.59609e-06, No Iterations 3
GAMG:  Solving for p, Initial residual = 0.0089928, Final residual = 0.000233812, No Iterations 2
time step continuity errors : sum local = 1.21099e-07, global = -7.34847e-20, cumulative = 6.71332e-19
GAMG:  Solving for p, Initial residual = 0.000491233, Final residual = 7.56849e-07, No Iterations 6
time step continuity errors : sum local = 4.39801e-10, global = -1.765e-19, cumulative = 4.94832e-19
smoothSolver:  Solving for epsilon, Initial residual = 0.0141345, Final residual = 1.46149e-06, No Iterations 3
smoothSolver:  Solving for k, Initial residual = 0.0316696, Final residual = 5.66314e-06, No Iterations 3
ExecutionTime = 0.061765 s  ClockTime = 0 s

Time = 0.315s

Courant Number mean: 0.0198858 max: 0.126923
smoothSolver:  Solving for Ux, Initial residual = 0.00606915, Final residual = 1.26539e-06, No Iterations 3
smoothSolver:  Solving for Uy, Initial residual = 0.00753255, Final residual = 1.58053e-06, No Iterations 3
GAMG:  Solving for p, Initial residual = 0.00932204, Final residual = 0.000233937, No Iterations 2
time step continuity errors : sum local = 1.22054e-07, global = -4.39646e-20, cumulative = 4.50867e-19
GAMG:  Solving for p, Initial residual = 0.000493552, Final residual = 7.63036e-07, No Iterations 6
time step continuity errors : sum local = 4.46332e-10, global = 5.88436e-20, cumulative = 5.09711e-19
smoothSolver:  Solving for epsilon, Initial residual = 0.0138891, Final residual = 1.42955e-06, No Iterations 3
smoothSolver:  Solving for k, Initial residual = 0.0309085, Final residual = 5.52388e-06, No Iterations 3
ExecutionTime = 0.062674 s  ClockTime = 0 s

Time = 0.32s

Courant Number mean: 0.0201157 max: 0.128164
smoothSolver:  Solving for Ux, Initial residual = 0.00595994, Final residual = 1.26363e-06, No Iterations 3
smoothSolver:  Solving for Uy, Initial residual = 0.00742049, Final residual = 1.56289e-06, No Iterations 3
GAMG:  Solving for p, Initial residual = 0.00883867, Final residual = 0.000236839, No Iterations 2
time step continuity errors : sum local = 1.23812e-07, global = 3.31493e-20, cumulative = 5.4286e-19
GAMG:  Solving for p, Initial residual = 0.000496204, Final residual = 7.89139e-07, No Iterations 6
time step continuity errors : sum local = 4.63266e-10, global = -6.55541e-20, cumulative = 4.77306e-19
smoothSolver:  Solving for epsilon, Initial residual = 0.0136576, Final residual = 1.39973e-06, No Iterations 3
smoothSolver:  Solving for k, Initial residual = 0.0301782, Final residual = 5.39153e-06, No Iterations 3
ExecutionTime = 0.063576 s  ClockTime = 0 s

Time = 0.325s

Courant Number mean: 0.0203464 max: 0.129393
smoothSolver:  Solving for Ux, Initial residual = 0.00585199, Final residual = 1.25969e-06, No Iterations 3
smoothSolver:  Solving for Uy, Initial residual = 0.00731885, Final residual = 1.54547e-06, No Iterations 3
GAMG:  Solving for p, Initial residual = 0.00889407, Final residual = 0.000241612, No Iterations 2
time step continuity errors : sum local = 1.26842e-07, global = -1.07554e-19, cumulative = 3.69752e-19
GAMG:  Solving for p, Initial residual = 0.000500318, Final residual = 8.39461e-07, No Iterations 6
time step continuity errors : sum local = 4.95106e-10, global = -3.95496e-20, cumulative = 3.30203e-19
smoothSolver:  Solving for epsilon, Initial residual = 0.013418, Final residual = 1.36958e-06, No Iterations 3
smoothSolver:  Solving for k, Initial residual = 0.0294798, Final residual = 5.26209e-06, No Iterations 3
ExecutionTime = 0.064487 s  ClockTime = 0 s

Time = 0.33s

Courant Number mean: 0.0205774 max: 0.13061
smoothSolver:  Solving for Ux, Initial residual = 0.00574892, Final residual = 1.25127e-06, No Iterations 3
smoothSolver:  Solving for Uy, Initial residual = 0.00722435, Final residual = 1.52958e-06, No Iterations 3
GAMG:  Solving for p, Initial residual = 0.00890223, Final residual = 0.000231302, No Iterations 2
time step continuity errors : sum local = 1.22778e-07, global = -7.0755e-20, cumulative = 2.59448e-19
GAMG:  Solving for p, Initial residual = 0.000478663, Final residual = 6.65709e-07, No Iterations 6
time step continuity errors : sum local = 3.97851e-10, global = -1.1839e-20, cumulative = 2.47609e-19
smoothSolver:  Solving for epsilon, Initial residual = 0.0131818, Final residual = 1.33808e-06, No Iterations 3
smoothSolver:  Solving for k, Initial residual = 0.0288067, Final residual = 5.12196e-06, No Iterations 3
ExecutionTime = 0.065386 s  ClockTime = 0 s

Time = 0.335s

Courant Number mean: 0.0208062 max: 0.131815
smoothSolver:  Solving for Ux, Initial residual = 0.00564694, Final residual = 1.24128e-06, No Iterations 3
smoothSolver:  Solving for Uy, Initial residual = 0.00712167, Final residual = 1.51321e-06, No Iterations 3
GAMG:  Solving for p, Initial residual = 0.00862627, Final residual = 0.000240139, No Iterations 2
time step continuity errors : sum local = 1.28135e-07, global = 7.43946e-20, cumulative = 3.22003e-19
GAMG:  Solving for p, Initial residual = 0.000482044, Final residual = 7.93368e-07, No Iterations 6
time step continuity errors : sum local = 4.75398e-10, global = 9.58599e-20, cumulative = 4.17863e-19
smoothSolver:  Solving for epsilon, Initial residual = 0.0129404, Final residual = 1.3052e-06, No Iterations 3
smoothSolver:  Solving for k, Initial residual = 0.0281567, Final residual = 4.99299e-06, No Iterations 3
ExecutionTime = 0.066284 s  ClockTime = 0 s

Time = 0.34s

Courant Number mean: 0.0210345 max: 0.133009
smoothSolver:  Solving for Ux, Initial residual = 0.00555241, Final residual = 1.22463e-06, No Iterations 3
smoothSolver:  Solving for Uy, Initial residual = 0.00703267, Final residual = 1.50079e-06, No Iterations 3
GAMG:  Solving for p, Initial residual = 0.00864053, Final residual = 0.000240191, No Iterations 2
time step continuity errors : sum local = 1.2894e-07, global = 2.72245e-20, cumulative = 4.45088e-19
GAMG:  Solving for p, Initial residual = 0.000474663, Final residual = 7.84868e-07, No Iterations 6
time step continuity errors : sum local = 4.73471e-10, global = 2.90961e-20, cumulative = 4.74184e-19
smoothSolver:  Solving for epsilon, Initial residual = 0.0127131, Final residual = 1.27645e-06, No Iterations 3
smoothSolver:  Solving for k, Initial residual = 0.0275325, Final residual = 4.86565e-06, No Iterations 3
ExecutionTime = 0.067188 s  ClockTime = 0 s

Time = 0.345s

Courant Number mean: 0.0212617 max: 0.134188
smoothSolver:  Solving for Ux, Initial residual = 0.00546146, Final residual = 1.19874e-06, No Iterations 3
smoothSolver:  Solving for Uy, Initial residual = 0.00694473, Final residual = 1.48751e-06, No Iterations 3
GAMG:  Solving for p, Initial residual = 0.00886951, Final residual = 0.000241273, No Iterations 2
time step continuity errors : sum local = 1.30302e-07, global = -7.09049e-20, cumulative = 4.03279e-19
GAMG:  Solving for p, Initial residual = 0.000471283, Final residual = 7.80358e-07, No Iterations 6
time step continuity errors : sum local = 4.73958e-10, global = 2.01057e-20, cumulative = 4.23384e-19
smoothSolver:  Solving for epsilon, Initial residual = 0.0124884, Final residual = 1.24861e-06, No Iterations 3
smoothSolver:  Solving for k, Initial residual = 0.0269289, Final residual = 4.74731e-06, No Iterations 3
ExecutionTime = 0.068099 s  ClockTime = 0 s

Time = 0.35s

Courant Number mean: 0.0214867 max: 0.13535
smoothSolver:  Solving for Ux, Initial residual = 0.00537649, Final residual = 1.1854e-06, No Iterations 3
smoothSolver:  Solving for Uy, Initial residual = 0.00684777, Final residual = 1.47476e-06, No Iterations 3
GAMG:  Solving for p, Initial residual = 0.00869122, Final residual = 0.000250047, No Iterations 2
time step continuity errors : sum local = 1.3592e-07, global = 1.1625e-19, cumulative = 5.39634e-19
GAMG:  Solving for p, Initial residual = 0.00047735, Final residual = 8.29517e-07, No Iterations 6
time step continuity errors : sum local = 5.06875e-10, global = 3.90222e-20, cumulative = 5.78657e-19
smoothSolver:  Solving for epsilon, Initial residual = 0.012266, Final residual = 1.22225e-06, No Iterations 3
smoothSolver:  Solving for k, Initial residual = 0.026353, Final residual = 4.6358e-06, No Iterations 3
ExecutionTime = 0.069002 s  ClockTime = 0 s

Time = 0.355s

Courant Number mean: 0.02171 max: 0.136499
smoothSolver:  Solving for Ux, Initial residual = 0.00529267, Final residual = 1.17183e-06, No Iterations 3
smoothSolver:  Solving for Uy, Initial residual = 0.00676247, Final residual = 1.46326e-06, No Iterations 3
GAMG:  Solving for p, Initial residual = 0.00894571, Final residual = 0.000260457, No Iterations 2
time step continuity errors : sum local = 1.42303e-07, global = 2.06484e-20, cumulative = 5.99305e-19
GAMG:  Solving for p, Initial residual = 0.000487575, Final residual = 8.68299e-07, No Iterations 6
time step continuity errors : sum local = 5.33898e-10, global = -9.52292e-21, cumulative = 5.89782e-19
smoothSolver:  Solving for epsilon, Initial residual = 0.0120455, Final residual = 1.19467e-06, No Iterations 3
smoothSolver:  Solving for k, Initial residual = 0.0257999, Final residual = 4.52412e-06, No Iterations 3
ExecutionTime = 0.069908 s  ClockTime = 0 s

Time = 0.36s

Courant Number mean: 0.021933 max: 0.137681
smoothSolver:  Solving for Ux, Initial residual = 0.00521205, Final residual = 1.1587e-06, No Iterations 3
smoothSolver:  Solving for Uy, Initial residual = 0.0066875, Final residual = 1.45379e-06, No Iterations 3
GAMG:  Solving for p, Initial residual = 0.0091484, Final residual = 0.000255606, No Iterations 2
time step continuity errors : sum local = 1.40873e-07, global = 9.84965e-20, cumulative = 6.88279e-19
GAMG:  Solving for p, Initial residual = 0.000475782, Final residual = 8.95431e-07, No Iterations 6
time step continuity errors : sum local = 5.54759e-10, global = 1.68021e-20, cumulative = 7.05081e-19
smoothSolver:  Solving for epsilon, Initial residual = 0.0118401, Final residual = 1.16801e-06, No Iterations 3
smoothSolver:  Solving for k, Initial residual = 0.0252675, Final residual = 4.41896e-06, No Iterations 3
ExecutionTime = 0.070807 s  ClockTime = 0 s

Time = 0.365s

Courant Number mean: 0.0221558 max: 0.138898
smoothSolver:  Solving for Ux, Initial residual = 0.00513544, Final residual = 1.14588e-06, No Iterations 3
smoothSolver:  Solving for Uy, Initial residual = 0.00661599, Final residual = 1.44538e-06, No Iterations 3
GAMG:  Solving for p, Initial residual = 0.00947401, Final residual = 0.000260086, No Iterations 2
time step continuity errors : sum local = 1.43769e-07, global = -3.70525e-20, cumulative = 6.68028e-19
GAMG:  Solving for p, Initial residual = 0.000480227, Final residual = 8.32576e-07, No Iterations 6
time step continuity errors : sum local = 5.19364e-10, global = -4.44403e-20, cumulative = 6.23588e-19
smoothSolver:  Solving for epsilon, Initial residual = 0.0116197, Final residual = 1.14228e-06, No Iterations 3
smoothSolver:  Solving for k, Initial residual = 0.0247696, Final residual = 4.3106e-06, No Iterations 3
ExecutionTime = 0.071717 s  ClockTime = 0 s

Time = 0.37s

Courant Number mean: 0.0223767 max: 0.140106
smoothSolver:  Solving for Ux, Initial residual = 0.00506329, Final residual = 1.13327e-06, No Iterations 3
smoothSolver:  Solving for Uy, Initial residual = 0.00653675, Final residual = 1.4355e-06, No Iterations 3
GAMG:  Solving for p, Initial residual = 0.00982702, Final residual = 0.000272468, No Iterations 2
time step continuity errors : sum local = 1.51663e-07, global = 4.65858e-20, cumulative = 6.70174e-19
GAMG:  Solving for p, Initial residual = 0.000502522, Final residual = 4.53176e-07, No Iterations 7
time step continuity errors : sum local = 2.86207e-10, global = 6.2964e-20, cumulative = 7.33138e-19
smoothSolver:  Solving for epsilon, Initial residual = 0.0114158, Final residual = 1.12124e-06, No Iterations 3
smoothSolver:  Solving for k, Initial residual = 0.0242777, Final residual = 4.21785e-06, No Iterations 3
ExecutionTime = 0.072642 s  ClockTime = 0 s

Time = 0.375s

Courant Number mean: 0.0225965 max: 0.141305
smoothSolver:  Solving for Ux, Initial residual = 0.00499462, Final residual = 1.11848e-06, No Iterations 3
smoothSolver:  Solving for Uy, Initial residual = 0.00646445, Final residual = 1.41853e-06, No Iterations 3
GAMG:  Solving for p, Initial residual = 0.00897498, Final residual = 0.00026349, No Iterations 2
time step continuity errors : sum local = 1.4852e-07, global = 3.24565e-20, cumulative = 7.65594e-19
GAMG:  Solving for p, Initial residual = 0.000463844, Final residual = 8.50291e-07, No Iterations 6
time step continuity errors : sum local = 5.40508e-10, global = -4.69425e-21, cumulative = 7.609e-19
smoothSolver:  Solving for epsilon, Initial residual = 0.0112145, Final residual = 1.09543e-06, No Iterations 3
smoothSolver:  Solving for k, Initial residual = 0.0237955, Final residual = 4.1224e-06, No Iterations 3
ExecutionTime = 0.073541 s  ClockTime = 0 s

Time = 0.38s

Courant Number mean: 0.0228164 max: 0.142484
smoothSolver:  Solving for Ux, Initial residual = 0.00492751, Final residual = 1.10521e-06, No Iterations 3
smoothSolver:  Solving for Uy, Initial residual = 0.00640761, Final residual = 1.4076e-06, No Iterations 3
GAMG:  Solving for p, Initial residual = 0.00922232, Final residual = 0.000267221, No Iterations 2
time step continuity errors : sum local = 1.521e-07, global = -1.64449e-19, cumulative = 5.96451e-19
GAMG:  Solving for p, Initial residual = 0.000463401, Final residual = 7.85731e-07, No Iterations 6
time step continuity errors : sum local = 5.04448e-10, global = 7.49271e-20, cumulative = 6.71378e-19
smoothSolver:  Solving for epsilon, Initial residual = 0.0110146, Final residual = 1.07206e-06, No Iterations 3
smoothSolver:  Solving for k, Initial residual = 0.0233308, Final residual = 4.03627e-06, No Iterations 3
ExecutionTime = 0.07444 s  ClockTime = 0 s

Time = 0.385s

Courant Number mean: 0.0230346 max: 0.143634
smoothSolver:  Solving for Ux, Initial residual = 0.0048621, Final residual = 1.09292e-06, No Iterations 3
smoothSolver:  Solving for Uy, Initial residual = 0.00635876, Final residual = 1.40055e-06, No Iterations 3
GAMG:  Solving for p, Initial residual = 0.00967614, Final residual = 0.000280095, No Iterations 2
time step continuity errors : sum local = 1.59989e-07, global = -5.84041e-20, cumulative = 6.12974e-19
GAMG:  Solving for p, Initial residual = 0.000474827, Final residual = 9.7258e-07, No Iterations 6
time step continuity errors : sum local = 6.26786e-10, global = 8.84721e-20, cumulative = 7.01446e-19
smoothSolver:  Solving for epsilon, Initial residual = 0.010815, Final residual = 1.04394e-06, No Iterations 3
smoothSolver:  Solving for k, Initial residual = 0.0228788, Final residual = 3.92486e-06, No Iterations 3
ExecutionTime = 0.075345 s  ClockTime = 0 s

Time = 0.39s

Courant Number mean: 0.0232515 max: 0.144766
smoothSolver:  Solving for Ux, Initial residual = 0.00479776, Final residual = 1.07901e-06, No Iterations 3
smoothSolver:  Solving for Uy, Initial residual = 0.00630433, Final residual = 1.39036e-06, No Iterations 3
GAMG:  Solving for p, Initial residual = 0.00935089, Final residual = 0.00023984, No Iterations 2
time step continuity errors : sum local = 1.38561e-07, global = -3.27667e-20, cumulative = 6.6868e-19
GAMG:  Solving for p, Initial residual = 0.000439613, Final residual = 6.76563e-07, No Iterations 6
time step continuity errors : sum local = 4.39884e-10, global = -7.26833e-20, cumulative = 5.95996e-19
smoothSolver:  Solving for epsilon, Initial residual = 0.0106172, Final residual = 1.02207e-06, No Iterations 3
smoothSolver:  Solving for k, Initial residual = 0.0224355, Final residual = 3.84158e-06, No Iterations 3
ExecutionTime = 0.076254 s  ClockTime = 0 s

Time = 0.395s

Courant Number mean: 0.023469 max: 0.145893
smoothSolver:  Solving for Ux, Initial residual = 0.00473549, Final residual = 1.06314e-06, No Iterations 3
smoothSolver:  Solving for Uy, Initial residual = 0.00619892, Final residual = 1.36956e-06, No Iterations 3
GAMG:  Solving for p, Initial residual = 0.008007, Final residual = 0.000283922, No Iterations 2
time step continuity errors : sum local = 1.63782e-07, global = -6.89869e-20, cumulative = 5.27009e-19
GAMG:  Solving for p, Initial residual = 0.000456281, Final residual = 9.18729e-07, No Iterations 6
time step continuity errors : sum local = 5.96836e-10, global = 4.28066e-20, cumulative = 5.69816e-19
smoothSolver:  Solving for epsilon, Initial residual = 0.0104208, Final residual = 9.99902e-07, No Iterations 3
smoothSolver:  Solving for k, Initial residual = 0.0220011, Final residual = 3.75131e-06, No Iterations 3
ExecutionTime = 0.07716 s  ClockTime = 0 s

Time = 0.4s

Courant Number mean: 0.0236854 max: 0.147005
smoothSolver:  Solving for Ux, Initial residual = 0.00467274, Final residual = 1.04979e-06, No Iterations 3
smoothSolver:  Solving for Uy, Initial residual = 0.0061337, Final residual = 1.35892e-06, No Iterations 3
GAMG:  Solving for p, Initial residual = 0.00985732, Final residual = 0.000267534, No Iterations 2
time step continuity errors : sum local = 1.55454e-07, global = -1.39152e-19, cumulative = 4.30664e-19
GAMG:  Solving for p, Initial residual = 0.000460264, Final residual = 8.31412e-07, No Iterations 6
time step continuity errors : sum local = 5.42975e-10, global = -1.00849e-19, cumulative = 3.29815e-19
smoothSolver:  Solving for epsilon, Initial residual = 0.0102277, Final residual = 9.79142e-07, No Iterations 3
smoothSolver:  Solving for k, Initial residual = 0.021565, Final residual = 3.66486e-06, No Iterations 3
ExecutionTime = 0.07807 s  ClockTime = 0 s

Time = 0.405s

Courant Number mean: 0.0238998 max: 0.148107
smoothSolver:  Solving for Ux, Initial residual = 0.00461329, Final residual = 1.03595e-06, No Iterations 3
smoothSolver:  Solving for Uy, Initial residual = 0.00604258, Final residual = 1.34261e-06, No Iterations 3
GAMG:  Solving for p, Initial residual = 0.00786062, Final residual = 0.000290654, No Iterations 2
time step continuity errors : sum local = 1.69094e-07, global = 1.93302e-20, cumulative = 3.49145e-19
GAMG:  Solving for p, Initial residual = 0.000461781, Final residual = 9.01543e-07, No Iterations 6
time step continuity errors : sum local = 5.92338e-10, global = -3.90119e-20, cumulative = 3.10133e-19
smoothSolver:  Solving for epsilon, Initial residual = 0.0100511, Final residual = 9.59781e-07, No Iterations 3
smoothSolver:  Solving for k, Initial residual = 0.0211183, Final residual = 3.57619e-06, No Iterations 3
ExecutionTime = 0.078979 s  ClockTime = 0 s

Time = 0.41s

Courant Number mean: 0.0241132 max: 0.14919
smoothSolver:  Solving for Ux, Initial residual = 0.00455117, Final residual = 1.02391e-06, No Iterations 3
smoothSolver:  Solving for Uy, Initial residual = 0.00599551, Final residual = 1.33919e-06, No Iterations 3
GAMG:  Solving for p, Initial residual = 0.00812314, Final residual = 0.000291475, No Iterations 2
time step continuity errors : sum local = 1.70379e-07, global = -8.369e-20, cumulative = 2.26443e-19
GAMG:  Solving for p, Initial residual = 0.000443982, Final residual = 9.4292e-07, No Iterations 6
time step continuity errors : sum local = 6.21611e-10, global = 3.55584e-20, cumulative = 2.62001e-19
smoothSolver:  Solving for epsilon, Initial residual = 0.00986579, Final residual = 9.40029e-07, No Iterations 3
smoothSolver:  Solving for k, Initial residual = 0.0206845, Final residual = 3.47965e-06, No Iterations 3
ExecutionTime = 0.079892 s  ClockTime = 0 s

Time = 0.415s

Courant Number mean: 0.0243248 max: 0.150256
smoothSolver:  Solving for Ux, Initial residual = 0.00449142, Final residual = 1.01201e-06, No Iterations 3
smoothSolver:  Solving for Uy, Initial residual = 0.00593475, Final residual = 1.3325e-06, No Iterations 3
GAMG:  Solving for p, Initial residual = 0.0078431, Final residual = 0.000292946, No Iterations 2
time step continuity errors : sum local = 1.72621e-07, global = 3.05335e-20, cumulative = 2.92535e-19
GAMG:  Solving for p, Initial residual = 0.00044863, Final residual = 9.58728e-07, No Iterations 6
time step continuity errors : sum local = 6.37101e-10, global = 1.14099e-20, cumulative = 3.03945e-19
smoothSolver:  Solving for epsilon, Initial residual = 0.00968324, Final residual = 9.19421e-07, No Iterations 3
smoothSolver:  Solving for k, Initial residual = 0.0202666, Final residual = 3.39034e-06, No Iterations 3
ExecutionTime = 0.0808 s  ClockTime = 0 s

Time = 0.42s

Courant Number mean: 0.0245346 max: 0.151305
smoothSolver:  Solving for Ux, Initial residual = 0.00443099, Final residual = 9.99737e-07, No Iterations 3
smoothSolver:  Solving for Uy, Initial residual = 0.00588137, Final residual = 1.32811e-06, No Iterations 3
GAMG:  Solving for p, Initial residual = 0.00790964, Final residual = 0.000291677, No Iterations 2
time step continuity errors : sum local = 1.73117e-07, global = 1.44229e-19, cumulative = 4.48174e-19
GAMG:  Solving for p, Initial residual = 0.00044321, Final residual = 9.67349e-07, No Iterations 6
[...]
ExecutionTime = 1.70629 s  ClockTime = 1 s

Time = 9.9s

Courant Number mean: 0.122662 max: 0.251808
smoothSolver:  Solving for Ux, Initial residual = 3.44763e-05, Final residual = 1.77609e-06, No Iterations 1
smoothSolver:  Solving for Uy, Initial residual = 3.32209e-05, Final residual = 1.75956e-06, No Iterations 1
GAMG:  Solving for p, Initial residual = 4.60043e-05, Final residual = 4.10119e-06, No Iterations 2
time step continuity errors : sum local = 6.77279e-09, global = 1.50547e-19, cumulative = -5.79229e-18
GAMG:  Solving for p, Initial residual = 3.9799e-06, Final residual = 3.64347e-07, No Iterations 2
time step continuity errors : sum local = 6.64593e-10, global = -5.52226e-19, cumulative = -6.34451e-18
smoothSolver:  Solving for epsilon, Initial residual = 7.1768e-05, Final residual = 4.38348e-06, No Iterations 1
smoothSolver:  Solving for k, Initial residual = 0.000137026, Final residual = 8.84736e-06, No Iterations 1
ExecutionTime = 1.70707 s  ClockTime = 1 s

Time = 9.905s

Courant Number mean: 0.12267 max: 0.251813
smoothSolver:  Solving for Ux, Initial residual = 3.44108e-05, Final residual = 1.77324e-06, No Iterations 1
smoothSolver:  Solving for Uy, Initial residual = 3.31556e-05, Final residual = 1.75653e-06, No Iterations 1
GAMG:  Solving for p, Initial residual = 4.58896e-05, Final residual = 4.09449e-06, No Iterations 2
time step continuity errors : sum local = 6.76157e-09, global = -1.42606e-19, cumulative = -6.48712e-18
GAMG:  Solving for p, Initial residual = 3.97406e-06, Final residual = 3.63798e-07, No Iterations 2
time step continuity errors : sum local = 6.63569e-10, global = 5.16161e-20, cumulative = -6.4355e-18
smoothSolver:  Solving for epsilon, Initial residual = 7.16229e-05, Final residual = 4.36777e-06, No Iterations 1
smoothSolver:  Solving for k, Initial residual = 0.000136834, Final residual = 8.81814e-06, No Iterations 1
ExecutionTime = 1.70788 s  ClockTime = 1 s

Time = 9.91s

Courant Number mean: 0.122678 max: 0.251818
smoothSolver:  Solving for Ux, Initial residual = 3.43452e-05, Final residual = 1.7704e-06, No Iterations 1
smoothSolver:  Solving for Uy, Initial residual = 3.30903e-05, Final residual = 1.75351e-06, No Iterations 1
GAMG:  Solving for p, Initial residual = 4.57745e-05, Final residual = 4.08782e-06, No Iterations 2
time step continuity errors : sum local = 6.75038e-09, global = 2.51132e-19, cumulative = -6.18437e-18
GAMG:  Solving for p, Initial residual = 3.96828e-06, Final residual = 3.63247e-07, No Iterations 2
time step continuity errors : sum local = 6.62543e-10, global = 1.31025e-19, cumulative = -6.05334e-18
smoothSolver:  Solving for epsilon, Initial residual = 7.14799e-05, Final residual = 4.35212e-06, No Iterations 1
smoothSolver:  Solving for k, Initial residual = 0.000136641, Final residual = 8.7889e-06, No Iterations 1
ExecutionTime = 1.70867 s  ClockTime = 1 s

Time = 9.915s

Courant Number mean: 0.122686 max: 0.251823
smoothSolver:  Solving for Ux, Initial residual = 3.42794e-05, Final residual = 1.76755e-06, No Iterations 1
smoothSolver:  Solving for Uy, Initial residual = 3.30252e-05, Final residual = 1.75049e-06, No Iterations 1
GAMG:  Solving for p, Initial residual = 4.56604e-05, Final residual = 4.08116e-06, No Iterations 2
time step continuity errors : sum local = 6.73921e-09, global = 3.15652e-19, cumulative = -5.73769e-18
GAMG:  Solving for p, Initial residual = 3.96258e-06, Final residual = 3.62696e-07, No Iterations 2
time step continuity errors : sum local = 6.61515e-10, global = 2.5411e-19, cumulative = -5.48358e-18
smoothSolver:  Solving for epsilon, Initial residual = 7.1337e-05, Final residual = 4.33653e-06, No Iterations 1
smoothSolver:  Solving for k, Initial residual = 0.000136448, Final residual = 8.75965e-06, No Iterations 1
ExecutionTime = 1.70945 s  ClockTime = 1 s

Time = 9.92s

Courant Number mean: 0.122694 max: 0.251828
smoothSolver:  Solving for Ux, Initial residual = 3.42137e-05, Final residual = 1.76471e-06, No Iterations 1
smoothSolver:  Solving for Uy, Initial residual = 3.29605e-05, Final residual = 1.74748e-06, No Iterations 1
GAMG:  Solving for p, Initial residual = 4.55469e-05, Final residual = 4.0745e-06, No Iterations 2
time step continuity errors : sum local = 6.72806e-09, global = -5.54873e-19, cumulative = -6.03846e-18
GAMG:  Solving for p, Initial residual = 3.95685e-06, Final residual = 3.62144e-07, No Iterations 2
time step continuity errors : sum local = 6.60486e-10, global = 5.00279e-19, cumulative = -5.53818e-18
smoothSolver:  Solving for epsilon, Initial residual = 7.11942e-05, Final residual = 4.32101e-06, No Iterations 1
smoothSolver:  Solving for k, Initial residual = 0.000136256, Final residual = 8.73044e-06, No Iterations 1
ExecutionTime = 1.71023 s  ClockTime = 1 s

Time = 9.925s

Courant Number mean: 0.122702 max: 0.251833
smoothSolver:  Solving for Ux, Initial residual = 3.4148e-05, Final residual = 1.76188e-06, No Iterations 1
smoothSolver:  Solving for Uy, Initial residual = 3.28962e-05, Final residual = 1.74448e-06, No Iterations 1
GAMG:  Solving for p, Initial residual = 4.54331e-05, Final residual = 4.06762e-06, No Iterations 2
time step continuity errors : sum local = 6.71657e-09, global = -1.04886e-19, cumulative = -5.64306e-18
GAMG:  Solving for p, Initial residual = 3.95072e-06, Final residual = 3.61607e-07, No Iterations 2
time step continuity errors : sum local = 6.5948e-10, global = -5.39322e-20, cumulative = -5.69699e-18
smoothSolver:  Solving for epsilon, Initial residual = 7.10517e-05, Final residual = 4.30557e-06, No Iterations 1
smoothSolver:  Solving for k, Initial residual = 0.000136068, Final residual = 8.70121e-06, No Iterations 1
ExecutionTime = 1.71101 s  ClockTime = 1 s

Time = 9.93s

Courant Number mean: 0.122711 max: 0.251838
smoothSolver:  Solving for Ux, Initial residual = 3.40822e-05, Final residual = 1.75904e-06, No Iterations 1
smoothSolver:  Solving for Uy, Initial residual = 3.28319e-05, Final residual = 1.74151e-06, No Iterations 1
GAMG:  Solving for p, Initial residual = 4.53215e-05, Final residual = 4.06094e-06, No Iterations 2
time step continuity errors : sum local = 6.70539e-09, global = -2.28964e-19, cumulative = -5.92596e-18
GAMG:  Solving for p, Initial residual = 3.94492e-06, Final residual = 3.61066e-07, No Iterations 2
time step continuity errors : sum local = 6.58469e-10, global = 2.39221e-19, cumulative = -5.68674e-18
smoothSolver:  Solving for epsilon, Initial residual = 7.09095e-05, Final residual = 4.29019e-06, No Iterations 1
smoothSolver:  Solving for k, Initial residual = 0.000135882, Final residual = 8.67196e-06, No Iterations 1
ExecutionTime = 1.71181 s  ClockTime = 1 s

Time = 9.935s

Courant Number mean: 0.122719 max: 0.251843
smoothSolver:  Solving for Ux, Initial residual = 3.40164e-05, Final residual = 1.75621e-06, No Iterations 1
smoothSolver:  Solving for Uy, Initial residual = 3.27678e-05, Final residual = 1.73855e-06, No Iterations 1
GAMG:  Solving for p, Initial residual = 4.52109e-05, Final residual = 4.05437e-06, No Iterations 2
time step continuity errors : sum local = 6.69437e-09, global = -3.74547e-19, cumulative = -6.06129e-18
GAMG:  Solving for p, Initial residual = 3.93929e-06, Final residual = 3.60514e-07, No Iterations 2
time step continuity errors : sum local = 6.57443e-10, global = -2.2764e-19, cumulative = -6.28893e-18
smoothSolver:  Solving for epsilon, Initial residual = 7.07679e-05, Final residual = 4.27492e-06, No Iterations 1
smoothSolver:  Solving for k, Initial residual = 0.000135695, Final residual = 8.6427e-06, No Iterations 1
ExecutionTime = 1.7126 s  ClockTime = 1 s

Time = 9.94s

Courant Number mean: 0.122727 max: 0.251848
smoothSolver:  Solving for Ux, Initial residual = 3.39504e-05, Final residual = 1.75338e-06, No Iterations 1
smoothSolver:  Solving for Uy, Initial residual = 3.27037e-05, Final residual = 1.7356e-06, No Iterations 1
GAMG:  Solving for p, Initial residual = 4.50995e-05, Final residual = 4.04777e-06, No Iterations 2
time step continuity errors : sum local = 6.68329e-09, global = -1.85288e-20, cumulative = -6.30745e-18
GAMG:  Solving for p, Initial residual = 3.93357e-06, Final residual = 3.59961e-07, No Iterations 2
time step continuity errors : sum local = 6.56413e-10, global = -1.0224e-19, cumulative = -6.40969e-18
smoothSolver:  Solving for epsilon, Initial residual = 7.06261e-05, Final residual = 4.25978e-06, No Iterations 1
smoothSolver:  Solving for k, Initial residual = 0.000135511, Final residual = 8.61342e-06, No Iterations 1
ExecutionTime = 1.71338 s  ClockTime = 1 s

Time = 9.945s

Courant Number mean: 0.122735 max: 0.251853
smoothSolver:  Solving for Ux, Initial residual = 3.38844e-05, Final residual = 1.75056e-06, No Iterations 1
smoothSolver:  Solving for Uy, Initial residual = 3.26398e-05, Final residual = 1.73265e-06, No Iterations 1
GAMG:  Solving for p, Initial residual = 4.49911e-05, Final residual = 4.04116e-06, No Iterations 2
time step continuity errors : sum local = 6.6722e-09, global = 2.53779e-19, cumulative = -6.15591e-18
GAMG:  Solving for p, Initial residual = 3.92781e-06, Final residual = 3.59407e-07, No Iterations 2
time step continuity errors : sum local = 6.55381e-10, global = 7.48102e-19, cumulative = -5.40781e-18
smoothSolver:  Solving for epsilon, Initial residual = 7.04855e-05, Final residual = 4.24466e-06, No Iterations 1
smoothSolver:  Solving for k, Initial residual = 0.00013533, Final residual = 8.58413e-06, No Iterations 1
ExecutionTime = 1.71416 s  ClockTime = 1 s

Time = 9.95s

Courant Number mean: 0.122743 max: 0.251858
smoothSolver:  Solving for Ux, Initial residual = 3.38183e-05, Final residual = 1.74775e-06, No Iterations 1
smoothSolver:  Solving for Uy, Initial residual = 3.2576e-05, Final residual = 1.72971e-06, No Iterations 1
GAMG:  Solving for p, Initial residual = 4.48965e-05, Final residual = 4.03456e-06, No Iterations 2
time step continuity errors : sum local = 6.66113e-09, global = -2.53448e-19, cumulative = -5.66126e-18
GAMG:  Solving for p, Initial residual = 3.92203e-06, Final residual = 3.58852e-07, No Iterations 2
time step continuity errors : sum local = 6.54348e-10, global = -2.25324e-19, cumulative = -5.88658e-18
smoothSolver:  Solving for epsilon, Initial residual = 7.03446e-05, Final residual = 4.22958e-06, No Iterations 1
smoothSolver:  Solving for k, Initial residual = 0.00013515, Final residual = 8.55482e-06, No Iterations 1
ExecutionTime = 1.71495 s  ClockTime = 1 s

Time = 9.955s

Courant Number mean: 0.122751 max: 0.251863
smoothSolver:  Solving for Ux, Initial residual = 3.37522e-05, Final residual = 1.74496e-06, No Iterations 1
smoothSolver:  Solving for Uy, Initial residual = 3.25123e-05, Final residual = 1.72679e-06, No Iterations 1
GAMG:  Solving for p, Initial residual = 4.48031e-05, Final residual = 4.02795e-06, No Iterations 2
time step continuity errors : sum local = 6.65004e-09, global = 1.51539e-19, cumulative = -5.73505e-18
GAMG:  Solving for p, Initial residual = 3.91624e-06, Final residual = 3.58295e-07, No Iterations 2
time step continuity errors : sum local = 6.53312e-10, global = 6.78288e-20, cumulative = -5.66722e-18
smoothSolver:  Solving for epsilon, Initial residual = 7.02036e-05, Final residual = 4.21452e-06, No Iterations 1
smoothSolver:  Solving for k, Initial residual = 0.000134969, Final residual = 8.52553e-06, No Iterations 1
ExecutionTime = 1.71574 s  ClockTime = 1 s

Time = 9.96s

Courant Number mean: 0.122759 max: 0.251868
smoothSolver:  Solving for Ux, Initial residual = 3.36861e-05, Final residual = 1.74217e-06, No Iterations 1
smoothSolver:  Solving for Uy, Initial residual = 3.24487e-05, Final residual = 1.72388e-06, No Iterations 1
GAMG:  Solving for p, Initial residual = 4.47105e-05, Final residual = 4.02139e-06, No Iterations 2
time step continuity errors : sum local = 6.63902e-09, global = -8.96664e-20, cumulative = -5.75688e-18
GAMG:  Solving for p, Initial residual = 3.91043e-06, Final residual = 3.57737e-07, No Iterations 2
time step continuity errors : sum local = 6.52274e-10, global = -3.26571e-19, cumulative = -6.08345e-18
smoothSolver:  Solving for epsilon, Initial residual = 7.00624e-05, Final residual = 4.1995e-06, No Iterations 1
smoothSolver:  Solving for k, Initial residual = 0.000134786, Final residual = 8.49636e-06, No Iterations 1
ExecutionTime = 1.71653 s  ClockTime = 1 s

Time = 9.965s

Courant Number mean: 0.122767 max: 0.251873
smoothSolver:  Solving for Ux, Initial residual = 3.36201e-05, Final residual = 1.73938e-06, No Iterations 1
smoothSolver:  Solving for Uy, Initial residual = 3.23852e-05, Final residual = 1.72097e-06, No Iterations 1
GAMG:  Solving for p, Initial residual = 4.46178e-05, Final residual = 4.01484e-06, No Iterations 2
time step continuity errors : sum local = 6.62802e-09, global = -3.83812e-20, cumulative = -6.12183e-18
GAMG:  Solving for p, Initial residual = 3.90459e-06, Final residual = 3.57178e-07, No Iterations 2
time step continuity errors : sum local = 6.51234e-10, global = -2.78925e-19, cumulative = -6.40076e-18
smoothSolver:  Solving for epsilon, Initial residual = 6.99224e-05, Final residual = 4.1845e-06, No Iterations 1
smoothSolver:  Solving for k, Initial residual = 0.000134603, Final residual = 8.46717e-06, No Iterations 1
ExecutionTime = 1.71731 s  ClockTime = 1 s

Time = 9.97s

Courant Number mean: 0.122775 max: 0.251878
smoothSolver:  Solving for Ux, Initial residual = 3.35541e-05, Final residual = 1.7366e-06, No Iterations 1
smoothSolver:  Solving for Uy, Initial residual = 3.23219e-05, Final residual = 1.71807e-06, No Iterations 1
GAMG:  Solving for p, Initial residual = 4.45252e-05, Final residual = 4.00828e-06, No Iterations 2
time step continuity errors : sum local = 6.617e-09, global = -1.62127e-19, cumulative = -6.56289e-18
GAMG:  Solving for p, Initial residual = 3.89873e-06, Final residual = 3.56616e-07, No Iterations 2
time step continuity errors : sum local = 6.5019e-10, global = -1.45584e-19, cumulative = -6.70847e-18
smoothSolver:  Solving for epsilon, Initial residual = 6.97825e-05, Final residual = 4.1694e-06, No Iterations 1
smoothSolver:  Solving for k, Initial residual = 0.000134418, Final residual = 8.43798e-06, No Iterations 1
ExecutionTime = 1.7181 s  ClockTime = 1 s

Time = 9.975s

Courant Number mean: 0.122783 max: 0.251883
smoothSolver:  Solving for Ux, Initial residual = 3.34882e-05, Final residual = 1.73382e-06, No Iterations 1
smoothSolver:  Solving for Uy, Initial residual = 3.22587e-05, Final residual = 1.71517e-06, No Iterations 1
GAMG:  Solving for p, Initial residual = 4.44325e-05, Final residual = 4.00169e-06, No Iterations 2
time step continuity errors : sum local = 6.60593e-09, global = -2.33927e-19, cumulative = -6.9424e-18
GAMG:  Solving for p, Initial residual = 3.89284e-06, Final residual = 3.5605e-07, No Iterations 2
time step continuity errors : sum local = 6.49138e-10, global = -2.8058e-19, cumulative = -7.22298e-18
smoothSolver:  Solving for epsilon, Initial residual = 6.96499e-05, Final residual = 4.1549e-06, No Iterations 1
smoothSolver:  Solving for k, Initial residual = 0.000134233, Final residual = 8.40877e-06, No Iterations 1
ExecutionTime = 1.7189 s  ClockTime = 1 s

Time = 9.98s

Courant Number mean: 0.122791 max: 0.251888
smoothSolver:  Solving for Ux, Initial residual = 3.34222e-05, Final residual = 1.73105e-06, No Iterations 1
smoothSolver:  Solving for Uy, Initial residual = 3.21955e-05, Final residual = 1.71228e-06, No Iterations 1
GAMG:  Solving for p, Initial residual = 4.43411e-05, Final residual = 3.99512e-06, No Iterations 2
time step continuity errors : sum local = 6.59489e-09, global = -5.73732e-19, cumulative = -7.79671e-18
GAMG:  Solving for p, Initial residual = 3.88708e-06, Final residual = 3.55483e-07, No Iterations 2
time step continuity errors : sum local = 6.48087e-10, global = -3.48408e-19, cumulative = -8.14512e-18
smoothSolver:  Solving for epsilon, Initial residual = 6.95228e-05, Final residual = 4.14079e-06, No Iterations 1
smoothSolver:  Solving for k, Initial residual = 0.000134052, Final residual = 8.37953e-06, No Iterations 1
ExecutionTime = 1.71968 s  ClockTime = 1 s

Time = 9.985s

Courant Number mean: 0.122798 max: 0.251893
smoothSolver:  Solving for Ux, Initial residual = 3.33563e-05, Final residual = 1.72828e-06, No Iterations 1
smoothSolver:  Solving for Uy, Initial residual = 3.21325e-05, Final residual = 1.7094e-06, No Iterations 1
GAMG:  Solving for p, Initial residual = 4.42509e-05, Final residual = 3.98854e-06, No Iterations 2
time step continuity errors : sum local = 6.58385e-09, global = -3.73555e-19, cumulative = -8.51867e-18
GAMG:  Solving for p, Initial residual = 3.88143e-06, Final residual = 3.54914e-07, No Iterations 2
time step continuity errors : sum local = 6.47031e-10, global = 9.29751e-20, cumulative = -8.4257e-18
smoothSolver:  Solving for epsilon, Initial residual = 6.93913e-05, Final residual = 4.12643e-06, No Iterations 1
smoothSolver:  Solving for k, Initial residual = 0.000133873, Final residual = 8.35024e-06, No Iterations 1
ExecutionTime = 1.72047 s  ClockTime = 1 s

Time = 9.99s

Courant Number mean: 0.122806 max: 0.251898
smoothSolver:  Solving for Ux, Initial residual = 3.32904e-05, Final residual = 1.72551e-06, No Iterations 1
smoothSolver:  Solving for Uy, Initial residual = 3.20696e-05, Final residual = 1.70653e-06, No Iterations 1
GAMG:  Solving for p, Initial residual = 4.41605e-05, Final residual = 3.98196e-06, No Iterations 2
time step continuity errors : sum local = 6.57279e-09, global = 5.88953e-20, cumulative = -8.3668e-18
GAMG:  Solving for p, Initial residual = 3.87573e-06, Final residual = 3.54342e-07, No Iterations 2
time step continuity errors : sum local = 6.45969e-10, global = -1.12166e-19, cumulative = -8.47897e-18
smoothSolver:  Solving for epsilon, Initial residual = 6.9257e-05, Final residual = 4.11195e-06, No Iterations 1
smoothSolver:  Solving for k, Initial residual = 0.000133693, Final residual = 8.32092e-06, No Iterations 1
ExecutionTime = 1.72125 s  ClockTime = 1 s

Time = 9.995s

Courant Number mean: 0.122814 max: 0.251903
smoothSolver:  Solving for Ux, Initial residual = 3.32245e-05, Final residual = 1.72275e-06, No Iterations 1
smoothSolver:  Solving for Uy, Initial residual = 3.20068e-05, Final residual = 1.70365e-06, No Iterations 1
GAMG:  Solving for p, Initial residual = 4.407e-05, Final residual = 3.97537e-06, No Iterations 2
time step continuity errors : sum local = 6.56173e-09, global = 1.48893e-19, cumulative = -8.33008e-18
GAMG:  Solving for p, Initial residual = 3.86998e-06, Final residual = 3.53767e-07, No Iterations 2
time step continuity errors : sum local = 6.44903e-10, global = -6.08474e-19, cumulative = -8.93855e-18
smoothSolver:  Solving for epsilon, Initial residual = 6.9121e-05, Final residual = 4.09738e-06, No Iterations 1
smoothSolver:  Solving for k, Initial residual = 0.000133511, Final residual = 8.29158e-06, No Iterations 1
ExecutionTime = 1.72203 s  ClockTime = 1 s

Time = 10s

Courant Number mean: 0.122822 max: 0.251908
smoothSolver:  Solving for Ux, Initial residual = 3.31586e-05, Final residual = 1.72e-06, No Iterations 1
smoothSolver:  Solving for Uy, Initial residual = 3.1944e-05, Final residual = 1.70078e-06, No Iterations 1
GAMG:  Solving for p, Initial residual = 4.39803e-05, Final residual = 3.96878e-06, No Iterations 2
time step continuity errors : sum local = 6.55067e-09, global = 1.04225e-19, cumulative = -8.83433e-18
GAMG:  Solving for p, Initial residual = 3.86418e-06, Final residual = 3.53188e-07, No Iterations 2
time step continuity errors : sum local = 6.43833e-10, global = 3.62305e-19, cumulative = -8.47202e-18
smoothSolver:  Solving for epsilon, Initial residual = 6.89838e-05, Final residual = 4.08276e-06, No Iterations 1
smoothSolver:  Solving for k, Initial residual = 0.000133332, Final residual = 8.26223e-06, No Iterations 1
ExecutionTime = 1.72448 s  ClockTime = 1 s

End

