/*---------------------------------------------------------------------------*\
  =========                 |
  \\      /  F ield         | OpenFOAM: The Open Source CFD Toolbox
   \\    /   O peration     | Website:  https://openfoam.org
    \\  /    A nd           | Version:  10
     \\/     M anipulation  |
\*---------------------------------------------------------------------------*/
Build  : 10
Exec   : blockMesh
Date   : Apr 18 2026
Time   : 22:47:14
Host   : "alphagpu11"
PID    : 2718913
I/O    : uncollated
Case   : /mnt/home/DDN_Copy/rpi/pxu10/criteria/qwen3.5-35b-benchmark/runs/BernardCells/2
nProcs : 1
sigFpe : Enabling floating point exception trapping (FOAM_SIGFPE).
fileModificationChecking : Monitoring run-time modified files using timeStampMaster (fileModificationSkew 10)
allowSystemOperations : Allowing user-supplied system call operations

// * * * * * * * * * * * * * * * * * * * * * * * * * * * * * * * * * * * * * //
Create time

Deleting polyMesh directory
    "/mnt/home/DDN_Copy/rpi/pxu10/criteria/qwen3.5-35b-benchmark/runs/BernardCells/2/constant/polyMesh"
Reading "blockMeshDict"

Creating block mesh from
    "system/blockMeshDict"
Creating block edges
No non-planar block faces defined
Creating topology blocks
Creating topology patches

Creating block mesh topology

Check topology

	Basic statistics
		Number of internal faces : 0
		Number of boundary faces : 6
		Number of defined boundary faces : 6
		Number of undefined boundary faces : 0
	Checking patch -> block consistency

Creating block offsets
Creating merge list .

Creating polyMesh from blockMesh
Creating patches
Creating cells
Creating points with scale 1
    Block 0 cell size :
        i : 0.09 .. 0.09
        j : 0.1 .. 0.1
        k : 0.1 .. 0.1

Writing polyMesh
----------------
Mesh Information
----------------
  boundingBox: (0 0 0) (9 1 2)
  nPoints: 23331
  nCells: 20000
  nFaces: 63200
  nInternalFaces: 56800
----------------
Patches
----------------
  patch 0 (start: 56800 size: 200) name: left
  patch 1 (start: 57000 size: 200) name: right
  patch 2 (start: 57200 size: 1000) name: bottom
  patch 3 (start: 58200 size: 1000) name: top
  patch 4 (start: 59200 size: 2000) name: front
  patch 5 (start: 61200 size: 2000) name: back

End

