/*---------------------------------------------------------------------------*\
  =========                 |
  \\      /  F ield         | OpenFOAM: The Open Source CFD Toolbox
   \\    /   O peration     | Website:  https://openfoam.org
    \\  /    A nd           | Version:  10
     \\/     M anipulation  |
\*---------------------------------------------------------------------------*/
Build  : 10
Exec   : blockMesh
Date   : Mar 02 2026
Time   : 01:21:41
Host   : "alphagpu17"
PID    : 3974506
I/O    : uncollated
Case   : /mnt/home/DDN_Copy/rpi/pxu10/standard/qwen-benchmark/runs/obliqueShock/2
nProcs : 1
sigFpe : Enabling floating point exception trapping (FOAM_SIGFPE).
fileModificationChecking : Monitoring run-time modified files using timeStampMaster (fileModificationSkew 10)
allowSystemOperations : Allowing user-supplied system call operations

// * * * * * * * * * * * * * * * * * * * * * * * * * * * * * * * * * * * * * //
Create time

Deleting polyMesh directory
    "/mnt/home/DDN_Copy/rpi/pxu10/standard/qwen-benchmark/runs/obliqueShock/2/constant/polyMesh"
Reading "blockMeshDict"

Creating block mesh from
    "system/blockMeshDict"
Creating block edges
No non-planar block faces defined
Creating topology blocks
Creating topology patches

Creating block mesh topology
--> FOAM Warning : 
    From function void Foam::blockMesh::defaultPatchError(const Foam::word&, const Foam::dictionary&) const
    in file blockMesh/blockMeshTopology.C at line 349
    Reading "/mnt/home/DDN_Copy/rpi/pxu10/standard/qwen-benchmark/runs/obliqueShock/2/system/blockMeshDict" from line 10 to line 83
    The 'defaultPatch' type must be specified for the 'defaultFaces' patch, e.g. for snappyHexMesh

    defaultPatch
    {
        name default; // optional
        type patch;
    }

or for 2D meshes

    defaultPatch
    {
        name frontAndBack; // optional
        type empty;
    }


Check topology

	Basic statistics
		Number of internal faces : 0
		Number of boundary faces : 6
		Number of defined boundary faces : 6
		Number of undefined boundary faces : 0
	Checking patch -> block consistency

Creating block offsets
Creating merge list .

Creating polyMesh from blockMesh
Creating patches
Creating cells
Creating points with scale 1
    Block 0 cell size :
        i : 0.1025 .. 0.1025
        j : 0.1 .. 0.1
        k : 0.1

Writing polyMesh
----------------
Mesh Information
----------------
  boundingBox: (0 0 0) (4.1 1 0.1)
  nPoints: 902
  nCells: 400
  nFaces: 1650
  nInternalFaces: 750
----------------
Patches
----------------
  patch 0 (start: 750 size: 10) name: inlet
  patch 1 (start: 760 size: 10) name: outlet
  patch 2 (start: 770 size: 40) name: top
  patch 3 (start: 810 size: 40) name: bottom
  patch 4 (start: 850 size: 0) name: front
  patch 5 (start: 850 size: 0) name: back
  patch 6 (start: 850 size: 800) name: defaultFaces

End

