/*---------------------------------------------------------------------------*\
  =========                 |
  \\      /  F ield         | OpenFOAM: The Open Source CFD Toolbox
   \\    /   O peration     | Website:  https://openfoam.org
    \\  /    A nd           | Version:  10
     \\/     M anipulation  |
\*---------------------------------------------------------------------------*/
Build  : 10
Exec   : rhoCentralFoam
Date   : Mar 02 2026
Time   : 01:21:42
Host   : "alphagpu17"
PID    : 3974508
I/O    : uncollated
Case   : /mnt/home/DDN_Copy/rpi/pxu10/standard/qwen-benchmark/runs/obliqueShock/2
nProcs : 1
sigFpe : Enabling floating point exception trapping (FOAM_SIGFPE).
fileModificationChecking : Monitoring run-time modified files using timeStampMaster (fileModificationSkew 10)
allowSystemOperations : Allowing user-supplied system call operations

// * * * * * * * * * * * * * * * * * * * * * * * * * * * * * * * * * * * * * //
Create time

Create mesh for time = 0

Reading thermophysical properties

Selecting thermodynamics package perfectGas


--> FOAM FATAL ERROR: 
Unknown psiThermo type perfectGas

Valid psiThermo types are:

56
(
hePsiThermo<coefficientWilkeMultiComponentMixture<const<eConst<perfectGas<specie>>,sensibleInternalEnergy>>>
hePsiThermo<coefficientWilkeMultiComponentMixture<const<hConst<perfectGas<specie>>,sensibleEnthalpy>>>
hePsiThermo<coefficientWilkeMultiComponentMixture<const<hConst<perfectGas<specie>>,sensibleInternalEnergy>>>
hePsiThermo<coefficientWilkeMultiComponentMixture<const<janaf<perfectGas<specie>>,sensibleEnthalpy>>>
hePsiThermo<coefficientWilkeMultiComponentMixture<const<janaf<perfectGas<specie>>,sensibleInternalEnergy>>>
hePsiThermo<coefficientWilkeMultiComponentMixture<sutherland<eConst<perfectGas<specie>>,sensibleInternalEnergy>>>
hePsiThermo<coefficientWilkeMultiComponentMixture<sutherland<hConst<perfectGas<specie>>,sensibleEnthalpy>>>
hePsiThermo<coefficientWilkeMultiComponentMixture<sutherland<hConst<perfectGas<specie>>,sensibleInternalEnergy>>>
hePsiThermo<coefficientWilkeMultiComponentMixture<sutherland<janaf<perfectGas<specie>>,sensibleEnthalpy>>>
hePsiThermo<coefficientWilkeMultiComponentMixture<sutherland<janaf<perfectGas<specie>>,sensibleInternalEnergy>>>
hePsiThermo<multiComponentMixture<const<eConst<perfectGas<specie>>,sensibleInternalEnergy>>>
hePsiThermo<multiComponentMixture<const<hConst<perfectGas<specie>>,sensibleEnthalpy>>>
hePsiThermo<multiComponentMixture<const<hConst<perfectGas<specie>>,sensibleInternalEnergy>>>
hePsiThermo<multiComponentMixture<const<janaf<perfectGas<specie>>,sensibleEnthalpy>>>
hePsiThermo<multiComponentMixture<const<janaf<perfectGas<specie>>,sensibleInternalEnergy>>>
hePsiThermo<multiComponentMixture<sutherland<eConst<perfectGas<specie>>,sensibleInternalEnergy>>>
hePsiThermo<multiComponentMixture<sutherland<hConst<perfectGas<specie>>,sensibleEnthalpy>>>
hePsiThermo<multiComponentMixture<sutherland<hConst<perfectGas<specie>>,sensibleInternalEnergy>>>
hePsiThermo<multiComponentMixture<sutherland<janaf<perfectGas<specie>>,sensibleEnthalpy>>>
hePsiThermo<multiComponentMixture<sutherland<janaf<perfectGas<specie>>,sensibleInternalEnergy>>>
hePsiThermo<pureMixture<const<eConst<Boussinesq<specie>>,sensibleInternalEnergy>>>
hePsiThermo<pureMixture<const<eConst<perfectGas<specie>>,sensibleInternalEnergy>>>
hePsiThermo<pureMixture<const<hConst<Boussinesq<specie>>,sensibleEnthalpy>>>
hePsiThermo<pureMixture<const<hConst<Boussinesq<specie>>,sensibleInternalEnergy>>>
hePsiThermo<pureMixture<const<hConst<perfectGas<specie>>,sensibleEnthalpy>>>
hePsiThermo<pureMixture<const<hConst<perfectGas<specie>>,sensibleInternalEnergy>>>
hePsiThermo<pureMixture<const<janaf<Boussinesq<specie>>,sensibleEnthalpy>>>
hePsiThermo<pureMixture<const<janaf<Boussinesq<specie>>,sensibleInternalEnergy>>>
hePsiThermo<pureMixture<const<janaf<perfectGas<specie>>,sensibleEnthalpy>>>
hePsiThermo<pureMixture<const<janaf<perfectGas<specie>>,sensibleInternalEnergy>>>
hePsiThermo<pureMixture<sutherland<eConst<Boussinesq<specie>>,sensibleInternalEnergy>>>
hePsiThermo<pureMixture<sutherland<eConst<perfectGas<specie>>,sensibleInternalEnergy>>>
hePsiThermo<pureMixture<sutherland<hConst<Boussinesq<specie>>,sensibleEnthalpy>>>
hePsiThermo<pureMixture<sutherland<hConst<Boussinesq<specie>>,sensibleInternalEnergy>>>
hePsiThermo<pureMixture<sutherland<hConst<perfectGas<specie>>,sensibleEnthalpy>>>
hePsiThermo<pureMixture<sutherland<hConst<perfectGas<specie>>,sensibleInternalEnergy>>>
hePsiThermo<pureMixture<sutherland<janaf<Boussinesq<specie>>,sensibleEnthalpy>>>
hePsiThermo<pureMixture<sutherland<janaf<Boussinesq<specie>>,sensibleInternalEnergy>>>
hePsiThermo<pureMixture<sutherland<janaf<perfectGas<specie>>,sensibleEnthalpy>>>
hePsiThermo<pureMixture<sutherland<janaf<perfectGas<specie>>,sensibleInternalEnergy>>>
heheuPsiThermo<egrMixture<const<hConst<perfectGas<specie>>,absoluteEnthalpy>>>
heheuPsiThermo<egrMixture<const<janaf<perfectGas<specie>>,absoluteEnthalpy>>>
heheuPsiThermo<egrMixture<sutherland<hConst<perfectGas<specie>>,absoluteEnthalpy>>>
heheuPsiThermo<egrMixture<sutherland<janaf<perfectGas<specie>>,absoluteEnthalpy>>>
heheuPsiThermo<homogeneousMixture<const<hConst<perfectGas<specie>>,absoluteEnthalpy>>>
heheuPsiThermo<homogeneousMixture<const<janaf<perfectGas<specie>>,absoluteEnthalpy>>>
heheuPsiThermo<homogeneousMixture<sutherland<hConst<perfectGas<specie>>,absoluteEnthalpy>>>
heheuPsiThermo<homogeneousMixture<sutherland<janaf<perfectGas<specie>>,absoluteEnthalpy>>>
heheuPsiThermo<inhomogeneousMixture<const<hConst<perfectGas<specie>>,absoluteEnthalpy>>>
heheuPsiThermo<inhomogeneousMixture<const<janaf<perfectGas<specie>>,absoluteEnthalpy>>>
heheuPsiThermo<inhomogeneousMixture<sutherland<hConst<perfectGas<specie>>,absoluteEnthalpy>>>
heheuPsiThermo<inhomogeneousMixture<sutherland<janaf<perfectGas<specie>>,absoluteEnthalpy>>>
heheuPsiThermo<veryInhomogeneousMixture<const<hConst<perfectGas<specie>>,absoluteEnthalpy>>>
heheuPsiThermo<veryInhomogeneousMixture<const<janaf<perfectGas<specie>>,absoluteEnthalpy>>>
heheuPsiThermo<veryInhomogeneousMixture<sutherland<hConst<perfectGas<specie>>,absoluteEnthalpy>>>
heheuPsiThermo<veryInhomogeneousMixture<sutherland<janaf<perfectGas<specie>>,absoluteEnthalpy>>>
)



    From function static typename Table::iterator Foam::basicThermo::lookupCstrIter(const Foam::dictionary&, Table*) [with Thermo = Foam::psiThermo; Table = Foam::HashTable<Foam::autoPtr<Foam::psiThermo> (*)(const Foam::fvMesh&, const Foam::word&), Foam::word, Foam::string::hash>; typename Table::iterator = Foam::HashTable<Foam::autoPtr<Foam::psiThermo> (*)(const Foam::fvMesh&, const Foam::word&), Foam::word, Foam::string::hash>::iterator]
    in file lnInclude/basicThermoTemplates.C at line 224.

FOAM exiting

