/*---------------------------------------------------------------------------*\
  =========                 |
  \\      /  F ield         | OpenFOAM: The Open Source CFD Toolbox
   \\    /   O peration     | Website:  https://openfoam.org
    \\  /    A nd           | Version:  10
     \\/     M anipulation  |
\*---------------------------------------------------------------------------*/
Build  : 10
Exec   : buoyantFoam
Date   : Apr 20 2026
Time   : 01:08:07
Host   : "alphagpu11"
PID    : 3466871
I/O    : uncollated
Case   : /mnt/home/DDN_Copy/rpi/pxu10/criteria/qwen3.5-27b-claude-4.6-opus-benchmark/runs/BernardCells/2
nProcs : 1
sigFpe : Enabling floating point exception trapping (FOAM_SIGFPE).
fileModificationChecking : Monitoring run-time modified files using timeStampMaster (fileModificationSkew 10)
allowSystemOperations : Allowing user-supplied system call operations

// * * * * * * * * * * * * * * * * * * * * * * * * * * * * * * * * * * * * * //
Create time

Create mesh for time = 0


PIMPLE: Convergence criteria found
        U: tolerance 1e-05
        p_rgh: tolerance 1e-05
        T: tolerance 1e-05
        "(k|epsilon|omega)": tolerance 1e-05


PIMPLE: No corrector convergence criteria found
        Calculations will do 2 corrections


PIMPLE: Operating solver in transient mode with 2 outer correctors


Reading thermophysical properties

Selecting thermodynamics package 
{
    type            heRhoThermo;
    mixture         pureMixture;
    transport       const;
    thermo          hConst;
    equationOfState perfectGas;
    specie          specie;
    energy          sensibleEnthalpy;
}



--> FOAM FATAL IO ERROR: 
keyword thermodynamics is undefined in dictionary "/mnt/home/DDN_Copy/rpi/pxu10/criteria/qwen3.5-27b-claude-4.6-opus-benchmark/runs/BernardCells/2/constant/thermophysicalProperties/mixture"

file: /mnt/home/DDN_Copy/rpi/pxu10/criteria/qwen3.5-27b-claude-4.6-opus-benchmark/runs/BernardCells/2/constant/thermophysicalProperties/mixture from line 35 to line 63.

    From function const Foam::dictionary& Foam::dictionary::subDict(const Foam::word&) const
    in file db/dictionary/dictionary.C at line 1008.

FOAM exiting

