/*---------------------------------------------------------------------------*\
  =========                 |
  \\      /  F ield         | OpenFOAM: The Open Source CFD Toolbox
   \\    /   O peration     | Website:  https://openfoam.org
    \\  /    A nd           | Version:  10
     \\/     M anipulation  |
\*---------------------------------------------------------------------------*/
Build  : 10
Exec   : blockMesh
Date   : Apr 20 2026
Time   : 01:08:07
Host   : "alphagpu11"
PID    : 3466867
I/O    : uncollated
Case   : /mnt/home/DDN_Copy/rpi/pxu10/criteria/qwen3.5-27b-claude-4.6-opus-benchmark/runs/BernardCells/2
nProcs : 1
sigFpe : Enabling floating point exception trapping (FOAM_SIGFPE).
fileModificationChecking : Monitoring run-time modified files using timeStampMaster (fileModificationSkew 10)
allowSystemOperations : Allowing user-supplied system call operations

// * * * * * * * * * * * * * * * * * * * * * * * * * * * * * * * * * * * * * //
Create time

Deleting polyMesh directory
    "/mnt/home/DDN_Copy/rpi/pxu10/criteria/qwen3.5-27b-claude-4.6-opus-benchmark/runs/BernardCells/2/constant/polyMesh"
Reading "blockMeshDict"

Creating block mesh from
    "system/blockMeshDict"
Creating block edges
No non-planar block faces defined
Creating topology blocks
Creating topology patches

Creating block mesh topology

Check topology

	Basic statistics
		Number of internal faces : 0
		Number of boundary faces : 6
		Number of defined boundary faces : 6
		Number of undefined boundary faces : 0
	Checking patch -> block consistency

Creating block offsets
Creating merge list .

Creating polyMesh from blockMesh
Creating patches
Creating cells
Creating points with scale 1
    Block 0 cell size :
        i : 0.25
        j : 0.25
        k : 0.25

Writing polyMesh
----------------
Mesh Information
----------------
  boundingBox: (0 0 0) (9 1 2)
  nPoints: 1665
  nCells: 1152
  nFaces: 3920
  nInternalFaces: 2992
----------------
Patches
----------------
  patch 0 (start: 2992 size: 32) name: hotWall
  patch 1 (start: 3024 size: 32) name: coldWall
  patch 2 (start: 3056 size: 144) name: topWall
  patch 3 (start: 3200 size: 144) name: bottomWall
  patch 4 (start: 3344 size: 288) name: frontWall
  patch 5 (start: 3632 size: 288) name: backWall

End

