/*---------------------------------------------------------------------------*\
  =========                 |
  \\      /  F ield         | OpenFOAM: The Open Source CFD Toolbox
   \\    /   O peration     | Website:  https://openfoam.org
    \\  /    A nd           | Version:  10
     \\/     M anipulation  |
\*---------------------------------------------------------------------------*/
Build  : 10
Exec   : blockMesh
Date   : Mar 02 2026
Time   : 11:40:51
Host   : "alphagpu04"
PID    : 3451192
I/O    : uncollated
Case   : /mnt/home/DDN_Copy/rpi/pxu10/standard/qwen-benchmark/runs/pitzDaily/3
nProcs : 1
sigFpe : Enabling floating point exception trapping (FOAM_SIGFPE).
fileModificationChecking : Monitoring run-time modified files using timeStampMaster (fileModificationSkew 10)
allowSystemOperations : Allowing user-supplied system call operations

// * * * * * * * * * * * * * * * * * * * * * * * * * * * * * * * * * * * * * //
Create time

Reading "blockMeshDict"

Creating block mesh from
    "system/blockMeshDict"
Creating block edges
No non-planar block faces defined
Creating topology blocks
Creating topology patches

Creating block mesh topology
#0  Foam::error::printStack(Foam::Ostream&) at ??:?
#1  Foam::sigSegv::sigHandler(int) at ??:?
#2  ? in "/lib64/libc.so.6"
#3  Foam::polyMesh::setTopology(Foam::List<Foam::cellShape> const&, Foam::List<Foam::List<Foam::face> > const&, Foam::List<Foam::word> const&, Foam::List<int>&, Foam::List<int>&, int&, int&, Foam::List<Foam::cell>&) at ??:?
#4  Foam::polyMesh::polyMesh(Foam::IOobject const&, Foam::Field<Foam::Vector<double> >&&, Foam::List<Foam::cellShape> const&, Foam::List<Foam::List<Foam::face> > const&, Foam::List<Foam::word> const&, Foam::PtrList<Foam::dictionary> const&, Foam::word const&, Foam::word const&, bool) at ??:?
#5  Foam::blockMesh::createTopology(Foam::IOdictionary const&, Foam::word const&) at ??:?
#6  Foam::blockMesh::blockMesh(Foam::IOdictionary const&, Foam::word const&) at ??:?
#7  ? at ??:?
#8  ? in "/lib64/libc.so.6"
#9  __libc_start_main in "/lib64/libc.so.6"
#10  ? at ??:?
