/*---------------------------------------------------------------------------*\
  =========                 |
  \\      /  F ield         | OpenFOAM: The Open Source CFD Toolbox
   \\    /   O peration     | Website:  https://openfoam.org
    \\  /    A nd           | Version:  10
     \\/     M anipulation  |
\*---------------------------------------------------------------------------*/
Build  : 10-c4cf895ad8fa
Exec   : rhoSimpleFoam
Date   : Jul 10 2025
Time   : 21:27:33
Host   : "pan"
PID    : 2278531
I/O    : uncollated
Case   : /home/zhangt20/cfdllmbench/FoamBench/Dataset/Basic/squareBend/1/GT_Files
nProcs : 1
sigFpe : Enabling floating point exception trapping (FOAM_SIGFPE).
fileModificationChecking : Monitoring run-time modified files using timeStampMaster (fileModificationSkew 10)
allowSystemOperations : Allowing user-supplied system call operations

// * * * * * * * * * * * * * * * * * * * * * * * * * * * * * * * * * * * * * //
Create time

Create mesh for time = 0


SIMPLE: Convergence criteria found
        p: tolerance 0.001
        U: tolerance 0.0001
        h: tolerance 0.001
        "(k|epsilon)": tolerance 0.001

Reading thermophysical properties

Selecting thermodynamics package 
{
    type            hePsiThermo;
    mixture         pureMixture;
    transport       const;
    thermo          hConst;
    equationOfState perfectGas;
    specie          specie;
    energy          sensibleEnthalpy;
}

Reading field U

Reading/calculating face flux field phi

Creating turbulence model

Selecting turbulence model type RAS
Selecting RAS turbulence model kEpsilon
RAS
{
    model           kEpsilon;
    turbulence      on;
    printCoeffs     on;
    Cmu             0.09;
    C1              1.44;
    C2              1.92;
    C3              0;
    sigmak          1;
    sigmaEps        1.3;
}

Creating thermophysical transport model

Selecting thermophysical transport type RAS
Selecting default RAS thermophysical transport model unityLewisEddyDiffusivity
No MRF models present

No fvModels present
Creating fvConstraints from "system/fvConstraints"

Selecting finite volume constraint type limitPressure
    Name: limitp
    min 11000
    max 220000


Starting time loop

Time = 1s

DILUPBiCGStab:  Solving for Ux, Initial residual = 1, Final residual = 0.000127718, No Iterations 1
DILUPBiCGStab:  Solving for Uy, Initial residual = 1, Final residual = 0.000112161, No Iterations 1
DILUPBiCGStab:  Solving for Uz, Initial residual = 1, Final residual = 0.000112161, No Iterations 1
DILUPBiCGStab:  Solving for h, Initial residual = 1, Final residual = 1.47309e-05, No Iterations 1
GAMG:  Solving for p, Initial residual = 1, Final residual = 0.0982464, No Iterations 89
time step continuity errors : sum local = 71.5405, global = -71.038, cumulative = -71.038
DILUPBiCGStab:  Solving for epsilon, Initial residual = 0.611667, Final residual = 0.0112509, No Iterations 1
DILUPBiCGStab:  Solving for k, Initial residual = 1, Final residual = 0.0996861, No Iterations 1
ExecutionTime = 1.13502 s  ClockTime = 2 s

Time = 2s

DILUPBiCGStab:  Solving for Ux, Initial residual = 0.0228327, Final residual = 0.000315224, No Iterations 1
DILUPBiCGStab:  Solving for Uy, Initial residual = 0.0862071, Final residual = 0.00348487, No Iterations 1
DILUPBiCGStab:  Solving for Uz, Initial residual = 0.877111, Final residual = 0.0340583, No Iterations 1
DILUPBiCGStab:  Solving for h, Initial residual = 0.790494, Final residual = 0.00531738, No Iterations 1
GAMG:  Solving for p, Initial residual = 0.700721, Final residual = 0.0566726, No Iterations 4
time step continuity errors : sum local = 157.146, global = -48.3739, cumulative = -119.412
DILUPBiCGStab:  Solving for epsilon, Initial residual = 0.707144, Final residual = 0.0136598, No Iterations 1
DILUPBiCGStab:  Solving for k, Initial residual = 0.0421462, Final residual = 0.00249535, No Iterations 1
ExecutionTime = 1.27293 s  ClockTime = 2 s

Time = 3s

DILUPBiCGStab:  Solving for Ux, Initial residual = 0.00851825, Final residual = 0.000740128, No Iterations 1
DILUPBiCGStab:  Solving for Uy, Initial residual = 0.0697485, Final residual = 0.002029, No Iterations 2
DILUPBiCGStab:  Solving for Uz, Initial residual = 0.555162, Final residual = 0.0447951, No Iterations 1
DILUPBiCGStab:  Solving for h, Initial residual = 0.472818, Final residual = 0.045206, No Iterations 1
GAMG:  Solving for p, Initial residual = 0.177865, Final residual = 0.010521, No Iterations 2
time step continuity errors : sum local = 150.495, global = -47.2004, cumulative = -166.612
DILUPBiCGStab:  Solving for epsilon, Initial residual = 0.0929686, Final residual = 0.00558908, No Iterations 2
DILUPBiCGStab:  Solving for k, Initial residual = 0.365954, Final residual = 0.00904632, No Iterations 2
ExecutionTime = 1.40577 s  ClockTime = 2 s

Time = 4s

DILUPBiCGStab:  Solving for Ux, Initial residual = 0.00884618, Final residual = 0.00024322, No Iterations 2
DILUPBiCGStab:  Solving for Uy, Initial residual = 0.0379928, Final residual = 0.00141728, No Iterations 2
DILUPBiCGStab:  Solving for Uz, Initial residual = 0.400645, Final residual = 0.0148284, No Iterations 2
DILUPBiCGStab:  Solving for h, Initial residual = 0.235195, Final residual = 0.0090066, No Iterations 2
GAMG:  Solving for p, Initial residual = 0.173906, Final residual = 0.00872113, No Iterations 2
time step continuity errors : sum local = 112.228, global = -43.3368, cumulative = -209.949
DILUPBiCGStab:  Solving for epsilon, Initial residual = 0.0910998, Final residual = 0.00417446, No Iterations 2
DILUPBiCGStab:  Solving for k, Initial residual = 0.307124, Final residual = 0.0252368, No Iterations 1
ExecutionTime = 1.54378 s  ClockTime = 2 s

Time = 5s

DILUPBiCGStab:  Solving for Ux, Initial residual = 0.0104354, Final residual = 0.000272027, No Iterations 2
DILUPBiCGStab:  Solving for Uy, Initial residual = 0.0280938, Final residual = 0.00107176, No Iterations 2
DILUPBiCGStab:  Solving for Uz, Initial residual = 0.300829, Final residual = 0.0106312, No Iterations 2
DILUPBiCGStab:  Solving for h, Initial residual = 0.207827, Final residual = 0.00785243, No Iterations 2
GAMG:  Solving for p, Initial residual = 0.135358, Final residual = 0.0132431, No Iterations 1
time step continuity errors : sum local = 130.672, global = -41.7413, cumulative = -251.69
DILUPBiCGStab:  Solving for epsilon, Initial residual = 0.0503098, Final residual = 0.00194609, No Iterations 2
DILUPBiCGStab:  Solving for k, Initial residual = 0.205064, Final residual = 0.0179156, No Iterations 1
ExecutionTime = 1.67508 s  ClockTime = 2 s

Time = 6s

DILUPBiCGStab:  Solving for Ux, Initial residual = 0.00981201, Final residual = 0.000903718, No Iterations 1
DILUPBiCGStab:  Solving for Uy, Initial residual = 0.0215894, Final residual = 0.000909163, No Iterations 2
DILUPBiCGStab:  Solving for Uz, Initial residual = 0.281339, Final residual = 0.0278054, No Iterations 1
DILUPBiCGStab:  Solving for h, Initial residual = 0.179891, Final residual = 0.00819737, No Iterations 2
GAMG:  Solving for p, Initial residual = 0.111917, Final residual = 0.00558495, No Iterations 2
time step continuity errors : sum local = 69.9663, global = -37.9553, cumulative = -289.646
DILUPBiCGStab:  Solving for epsilon, Initial residual = 0.0254559, Final residual = 0.000923404, No Iterations 2
DILUPBiCGStab:  Solving for k, Initial residual = 0.146395, Final residual = 0.00913375, No Iterations 1
ExecutionTime = 1.80794 s  ClockTime = 2 s

Time = 7s

DILUPBiCGStab:  Solving for Ux, Initial residual = 0.0108507, Final residual = 0.00105123, No Iterations 1
DILUPBiCGStab:  Solving for Uy, Initial residual = 0.0194454, Final residual = 0.000791786, No Iterations 2
DILUPBiCGStab:  Solving for Uz, Initial residual = 0.251706, Final residual = 0.00860306, No Iterations 2
DILUPBiCGStab:  Solving for h, Initial residual = 0.153357, Final residual = 0.0152633, No Iterations 1
GAMG:  Solving for p, Initial residual = 0.0923452, Final residual = 0.00576631, No Iterations 2
time step continuity errors : sum local = 67.8384, global = -34.199, cumulative = -323.845
DILUPBiCGStab:  Solving for epsilon, Initial residual = 0.0258977, Final residual = 0.00100896, No Iterations 2
DILUPBiCGStab:  Solving for k, Initial residual = 0.112498, Final residual = 0.00758043, No Iterations 1
ExecutionTime = 1.93977 s  ClockTime = 2 s

Time = 8s

DILUPBiCGStab:  Solving for Ux, Initial residual = 0.011485, Final residual = 0.00113176, No Iterations 1
DILUPBiCGStab:  Solving for Uy, Initial residual = 0.0173115, Final residual = 0.000719386, No Iterations 2
DILUPBiCGStab:  Solving for Uz, Initial residual = 0.225003, Final residual = 0.0207542, No Iterations 1
DILUPBiCGStab:  Solving for h, Initial residual = 0.134883, Final residual = 0.00470321, No Iterations 2
GAMG:  Solving for p, Initial residual = 0.0802715, Final residual = 0.00553165, No Iterations 2
time step continuity errors : sum local = 64.7356, global = -28.6775, cumulative = -352.522
DILUPBiCGStab:  Solving for epsilon, Initial residual = 0.0279604, Final residual = 0.000919994, No Iterations 2
DILUPBiCGStab:  Solving for k, Initial residual = 0.0893499, Final residual = 0.0061937, No Iterations 1
ExecutionTime = 2.0782 s  ClockTime = 3 s

Time = 9s

DILUPBiCGStab:  Solving for Ux, Initial residual = 0.0115517, Final residual = 0.00110453, No Iterations 1
DILUPBiCGStab:  Solving for Uy, Initial residual = 0.0153093, Final residual = 0.000667773, No Iterations 2
DILUPBiCGStab:  Solving for Uz, Initial residual = 0.199709, Final residual = 0.0167609, No Iterations 1
DILUPBiCGStab:  Solving for h, Initial residual = 0.116703, Final residual = 0.00401964, No Iterations 2
GAMG:  Solving for p, Initial residual = 0.0706813, Final residual = 0.00459707, No Iterations 2
time step continuity errors : sum local = 54.9378, global = -21.792, cumulative = -374.314
DILUPBiCGStab:  Solving for epsilon, Initial residual = 0.0272476, Final residual = 0.002646, No Iterations 1
DILUPBiCGStab:  Solving for k, Initial residual = 0.0748976, Final residual = 0.00527357, No Iterations 1
ExecutionTime = 2.21133 s  ClockTime = 3 s

Time = 10s

DILUPBiCGStab:  Solving for Ux, Initial residual = 0.011073, Final residual = 0.00103768, No Iterations 1
DILUPBiCGStab:  Solving for Uy, Initial residual = 0.013538, Final residual = 0.000641158, No Iterations 2
DILUPBiCGStab:  Solving for Uz, Initial residual = 0.182039, Final residual = 0.0148198, No Iterations 1
DILUPBiCGStab:  Solving for h, Initial residual = 0.100969, Final residual = 0.00330371, No Iterations 2
GAMG:  Solving for p, Initial residual = 0.0621852, Final residual = 0.0035548, No Iterations 2
time step continuity errors : sum local = 44.7521, global = -15.0646, cumulative = -389.379
DILUPBiCGStab:  Solving for epsilon, Initial residual = 0.0254714, Final residual = 0.0023548, No Iterations 1
DILUPBiCGStab:  Solving for k, Initial residual = 0.065779, Final residual = 0.00465642, No Iterations 1
ExecutionTime = 2.34244 s  ClockTime = 3 s

Time = 11s

DILUPBiCGStab:  Solving for Ux, Initial residual = 0.0106088, Final residual = 0.000978617, No Iterations 1
DILUPBiCGStab:  Solving for Uy, Initial residual = 0.0124686, Final residual = 0.000640875, No Iterations 2
DILUPBiCGStab:  Solving for Uz, Initial residual = 0.170677, Final residual = 0.0150957, No Iterations 1
DILUPBiCGStab:  Solving for h, Initial residual = 0.0896927, Final residual = 0.00883512, No Iterations 1
GAMG:  Solving for p, Initial residual = 0.0552, Final residual = 0.00532396, No Iterations 1
time step continuity errors : sum local = 57.0507, global = -10.1983, cumulative = -399.577
DILUPBiCGStab:  Solving for epsilon, Initial residual = 0.0232582, Final residual = 0.00197712, No Iterations 1
DILUPBiCGStab:  Solving for k, Initial residual = 0.05886, Final residual = 0.00423196, No Iterations 1
ExecutionTime = 2.46516 s  ClockTime = 3 s

Time = 12s

DILUPBiCGStab:  Solving for Ux, Initial residual = 0.0101392, Final residual = 0.000955286, No Iterations 1
DILUPBiCGStab:  Solving for Uy, Initial residual = 0.0115198, Final residual = 0.000621604, No Iterations 2
DILUPBiCGStab:  Solving for Uz, Initial residual = 0.149879, Final residual = 0.0145239, No Iterations 1
DILUPBiCGStab:  Solving for h, Initial residual = 0.0808301, Final residual = 0.00756738, No Iterations 1
GAMG:  Solving for p, Initial residual = 0.0506525, Final residual = 0.00281095, No Iterations 2
time step continuity errors : sum local = 38.0736, global = -8.28613, cumulative = -407.863
DILUPBiCGStab:  Solving for epsilon, Initial residual = 0.02142, Final residual = 0.00169321, No Iterations 1
DILUPBiCGStab:  Solving for k, Initial residual = 0.0538149, Final residual = 0.00389087, No Iterations 1
ExecutionTime = 2.59655 s  ClockTime = 3 s

Time = 13s

DILUPBiCGStab:  Solving for Ux, Initial residual = 0.0104717, Final residual = 0.00102688, No Iterations 1
DILUPBiCGStab:  Solving for Uy, Initial residual = 0.0118883, Final residual = 0.000611066, No Iterations 2
DILUPBiCGStab:  Solving for Uz, Initial residual = 0.145783, Final residual = 0.0140614, No Iterations 1
DILUPBiCGStab:  Solving for h, Initial residual = 0.0756612, Final residual = 0.00696613, No Iterations 1
GAMG:  Solving for p, Initial residual = 0.0466287, Final residual = 0.00465943, No Iterations 1
time step continuity errors : sum local = 50.1549, global = -6.42259, cumulative = -414.286
DILUPBiCGStab:  Solving for epsilon, Initial residual = 0.0192435, Final residual = 0.00143764, No Iterations 1
DILUPBiCGStab:  Solving for k, Initial residual = 0.0494398, Final residual = 0.00363763, No Iterations 1
ExecutionTime = 2.71895 s  ClockTime = 3 s

Time = 14s

DILUPBiCGStab:  Solving for Ux, Initial residual = 0.0100243, Final residual = 0.000996326, No Iterations 1
DILUPBiCGStab:  Solving for Uy, Initial residual = 0.0111519, Final residual = 0.000547914, No Iterations 2
DILUPBiCGStab:  Solving for Uz, Initial residual = 0.124828, Final residual = 0.0120748, No Iterations 1
DILUPBiCGStab:  Solving for h, Initial residual = 0.0696969, Final residual = 0.00612792, No Iterations 1
GAMG:  Solving for p, Initial residual = 0.0438221, Final residual = 0.0024714, No Iterations 2
time step continuity errors : sum local = 35.4894, global = -9.35699, cumulative = -423.643
DILUPBiCGStab:  Solving for epsilon, Initial residual = 0.0172862, Final residual = 0.00121793, No Iterations 1
DILUPBiCGStab:  Solving for k, Initial residual = 0.0457274, Final residual = 0.00334135, No Iterations 1
ExecutionTime = 2.84884 s  ClockTime = 3 s

Time = 15s

DILUPBiCGStab:  Solving for Ux, Initial residual = 0.0101131, Final residual = 0.000290246, No Iterations 2
DILUPBiCGStab:  Solving for Uy, Initial residual = 0.0109829, Final residual = 0.00051219, No Iterations 2
DILUPBiCGStab:  Solving for Uz, Initial residual = 0.114887, Final residual = 0.0106178, No Iterations 1
DILUPBiCGStab:  Solving for h, Initial residual = 0.0659491, Final residual = 0.00563786, No Iterations 1
GAMG:  Solving for p, Initial residual = 0.0400236, Final residual = 0.00193745, No Iterations 2
time step continuity errors : sum local = 31.8551, global = -12.0441, cumulative = -435.687
DILUPBiCGStab:  Solving for epsilon, Initial residual = 0.0156665, Final residual = 0.00105374, No Iterations 1
DILUPBiCGStab:  Solving for k, Initial residual = 0.0427574, Final residual = 0.00313227, No Iterations 1
ExecutionTime = 2.9803 s  ClockTime = 3 s

Time = 16s

DILUPBiCGStab:  Solving for Ux, Initial residual = 0.00973557, Final residual = 0.000281871, No Iterations 2
DILUPBiCGStab:  Solving for Uy, Initial residual = 0.0103956, Final residual = 0.000467473, No Iterations 2
DILUPBiCGStab:  Solving for Uz, Initial residual = 0.101719, Final residual = 0.00957665, No Iterations 1
DILUPBiCGStab:  Solving for h, Initial residual = 0.063021, Final residual = 0.00522408, No Iterations 1
GAMG:  Solving for p, Initial residual = 0.0367813, Final residual = 0.00361463, No Iterations 1
time step continuity errors : sum local = 42.5059, global = -11.8864, cumulative = -447.573
DILUPBiCGStab:  Solving for epsilon, Initial residual = 0.0143507, Final residual = 0.000936935, No Iterations 1
DILUPBiCGStab:  Solving for k, Initial residual = 0.0403496, Final residual = 0.00296712, No Iterations 1
ExecutionTime = 3.10498 s  ClockTime = 4 s

Time = 17s

DILUPBiCGStab:  Solving for Ux, Initial residual = 0.00903103, Final residual = 0.000898997, No Iterations 1
DILUPBiCGStab:  Solving for Uy, Initial residual = 0.00973166, Final residual = 0.000425802, No Iterations 2
DILUPBiCGStab:  Solving for Uz, Initial residual = 0.0879161, Final residual = 0.00867058, No Iterations 1
DILUPBiCGStab:  Solving for h, Initial residual = 0.059399, Final residual = 0.00468718, No Iterations 1
GAMG:  Solving for p, Initial residual = 0.0343978, Final residual = 0.00176768, No Iterations 2
time step continuity errors : sum local = 31.2778, global = -14.2998, cumulative = -461.873
DILUPBiCGStab:  Solving for epsilon, Initial residual = 0.0131274, Final residual = 0.000833988, No Iterations 1
DILUPBiCGStab:  Solving for k, Initial residual = 0.0380609, Final residual = 0.00279719, No Iterations 1
ExecutionTime = 3.23565 s  ClockTime = 4 s

Time = 18s

DILUPBiCGStab:  Solving for Ux, Initial residual = 0.00895944, Final residual = 0.000883881, No Iterations 1
DILUPBiCGStab:  Solving for Uy, Initial residual = 0.0091765, Final residual = 0.000419044, No Iterations 2
DILUPBiCGStab:  Solving for Uz, Initial residual = 0.0831355, Final residual = 0.00821522, No Iterations 1
DILUPBiCGStab:  Solving for h, Initial residual = 0.0572285, Final residual = 0.00444034, No Iterations 1
GAMG:  Solving for p, Initial residual = 0.0309715, Final residual = 0.00301963, No Iterations 1
time step continuity errors : sum local = 37.7628, global = -13.1032, cumulative = -474.976
DILUPBiCGStab:  Solving for epsilon, Initial residual = 0.0121662, Final residual = 0.000756771, No Iterations 1
DILUPBiCGStab:  Solving for k, Initial residual = 0.0363554, Final residual = 0.00267479, No Iterations 1
ExecutionTime = 3.35856 s  ClockTime = 4 s

Time = 19s

DILUPBiCGStab:  Solving for Ux, Initial residual = 0.00824317, Final residual = 0.000818827, No Iterations 1
DILUPBiCGStab:  Solving for Uy, Initial residual = 0.00857092, Final residual = 0.000381183, No Iterations 2
DILUPBiCGStab:  Solving for Uz, Initial residual = 0.0724586, Final residual = 0.00723605, No Iterations 1
DILUPBiCGStab:  Solving for h, Initial residual = 0.0544899, Final residual = 0.00401928, No Iterations 1
GAMG:  Solving for p, Initial residual = 0.0296106, Final residual = 0.00159084, No Iterations 2
time step continuity errors : sum local = 29.2194, global = -13.7286, cumulative = -488.705
DILUPBiCGStab:  Solving for epsilon, Initial residual = 0.0114448, Final residual = 0.000703318, No Iterations 1
DILUPBiCGStab:  Solving for k, Initial residual = 0.0349909, Final residual = 0.00257651, No Iterations 1
ExecutionTime = 3.49004 s  ClockTime = 4 s

Time = 20s

DILUPBiCGStab:  Solving for Ux, Initial residual = 0.00801235, Final residual = 0.00024275, No Iterations 2
DILUPBiCGStab:  Solving for Uy, Initial residual = 0.00800123, Final residual = 0.000364028, No Iterations 2
DILUPBiCGStab:  Solving for Uz, Initial residual = 0.0690125, Final residual = 0.00682123, No Iterations 1
DILUPBiCGStab:  Solving for h, Initial residual = 0.0528437, Final residual = 0.00388652, No Iterations 1
GAMG:  Solving for p, Initial residual = 0.0272277, Final residual = 0.00136178, No Iterations 2
time step continuity errors : sum local = 26.4559, global = -13.0701, cumulative = -501.775
DILUPBiCGStab:  Solving for epsilon, Initial residual = 0.0108991, Final residual = 0.000668374, No Iterations 1
DILUPBiCGStab:  Solving for k, Initial residual = 0.0340381, Final residual = 0.00252838, No Iterations 1
ExecutionTime = 3.62184 s  ClockTime = 4 s

Time = 21s

DILUPBiCGStab:  Solving for Ux, Initial residual = 0.00737084, Final residual = 0.000230759, No Iterations 2
DILUPBiCGStab:  Solving for Uy, Initial residual = 0.00748624, Final residual = 0.00033049, No Iterations 2
DILUPBiCGStab:  Solving for Uz, Initial residual = 0.0637898, Final residual = 0.00629632, No Iterations 1
DILUPBiCGStab:  Solving for h, Initial residual = 0.0511668, Final residual = 0.00369516, No Iterations 1
GAMG:  Solving for p, Initial residual = 0.0259357, Final residual = 0.00123387, No Iterations 2
time step continuity errors : sum local = 24.1899, global = -12.2647, cumulative = -514.04
DILUPBiCGStab:  Solving for epsilon, Initial residual = 0.0104905, Final residual = 0.000646051, No Iterations 1
DILUPBiCGStab:  Solving for k, Initial residual = 0.0332997, Final residual = 0.00248476, No Iterations 1
ExecutionTime = 3.75842 s  ClockTime = 4 s

Time = 22s

DILUPBiCGStab:  Solving for Ux, Initial residual = 0.00681395, Final residual = 0.000220577, No Iterations 2
DILUPBiCGStab:  Solving for Uy, Initial residual = 0.00699623, Final residual = 0.000297483, No Iterations 2
DILUPBiCGStab:  Solving for Uz, Initial residual = 0.0590373, Final residual = 0.005714, No Iterations 1
DILUPBiCGStab:  Solving for h, Initial residual = 0.0497462, Final residual = 0.00352403, No Iterations 1
GAMG:  Solving for p, Initial residual = 0.0246787, Final residual = 0.00241189, No Iterations 1
time step continuity errors : sum local = 29.4539, global = -10.5385, cumulative = -524.578
DILUPBiCGStab:  Solving for epsilon, Initial residual = 0.0101171, Final residual = 0.000622615, No Iterations 1
DILUPBiCGStab:  Solving for k, Initial residual = 0.0326744, Final residual = 0.00244029, No Iterations 1
ExecutionTime = 3.88819 s  ClockTime = 4 s

Time = 23s

DILUPBiCGStab:  Solving for Ux, Initial residual = 0.00627935, Final residual = 0.000626596, No Iterations 1
DILUPBiCGStab:  Solving for Uy, Initial residual = 0.00658668, Final residual = 0.000267133, No Iterations 2
DILUPBiCGStab:  Solving for Uz, Initial residual = 0.0527909, Final residual = 0.00505816, No Iterations 1
DILUPBiCGStab:  Solving for h, Initial residual = 0.0483805, Final residual = 0.00333581, No Iterations 1
GAMG:  Solving for p, Initial residual = 0.0238064, Final residual = 0.00119203, No Iterations 2
time step continuity errors : sum local = 20.4718, global = -9.73951, cumulative = -534.318
DILUPBiCGStab:  Solving for epsilon, Initial residual = 0.00975236, Final residual = 0.000595732, No Iterations 1
DILUPBiCGStab:  Solving for k, Initial residual = 0.0319402, Final residual = 0.00239432, No Iterations 1
ExecutionTime = 4.01937 s  ClockTime = 4 s

Time = 24s

DILUPBiCGStab:  Solving for Ux, Initial residual = 0.00604002, Final residual = 0.000592697, No Iterations 1
DILUPBiCGStab:  Solving for Uy, Initial residual = 0.00611255, Final residual = 0.000250357, No Iterations 2
DILUPBiCGStab:  Solving for Uz, Initial residual = 0.0520884, Final residual = 0.00494315, No Iterations 1
DILUPBiCGStab:  Solving for h, Initial residual = 0.0473295, Final residual = 0.00321879, No Iterations 1
GAMG:  Solving for p, Initial residual = 0.0220751, Final residual = 0.00217265, No Iterations 1
time step continuity errors : sum local = 24.5861, global = -8.02657, cumulative = -542.344
DILUPBiCGStab:  Solving for epsilon, Initial residual = 0.00935832, Final residual = 0.00056355, No Iterations 1
DILUPBiCGStab:  Solving for k, Initial residual = 0.0312765, Final residual = 0.00234087, No Iterations 1
ExecutionTime = 4.14266 s  ClockTime = 5 s

Time = 25s

DILUPBiCGStab:  Solving for Ux, Initial residual = 0.0056785, Final residual = 0.000556477, No Iterations 1
DILUPBiCGStab:  Solving for Uy, Initial residual = 0.00575795, Final residual = 0.000230069, No Iterations 2
DILUPBiCGStab:  Solving for Uz, Initial residual = 0.0470753, Final residual = 0.00448048, No Iterations 1
DILUPBiCGStab:  Solving for h, Initial residual = 0.0465803, Final residual = 0.00306262, No Iterations 1
GAMG:  Solving for p, Initial residual = 0.0211992, Final residual = 0.00111519, No Iterations 2
time step continuity errors : sum local = 16.1532, global = -6.7961, cumulative = -549.14
DILUPBiCGStab:  Solving for epsilon, Initial residual = 0.00899978, Final residual = 0.00053747, No Iterations 1
DILUPBiCGStab:  Solving for k, Initial residual = 0.0304909, Final residual = 0.00229353, No Iterations 1
ExecutionTime = 4.27237 s  ClockTime = 5 s

Time = 26s

DILUPBiCGStab:  Solving for Ux, Initial residual = 0.00554834, Final residual = 0.000539379, No Iterations 1
DILUPBiCGStab:  Solving for Uy, Initial residual = 0.0054391, Final residual = 0.000221906, No Iterations 2
DILUPBiCGStab:  Solving for Uz, Initial residual = 0.0470025, Final residual = 0.00450726, No Iterations 1
DILUPBiCGStab:  Solving for h, Initial residual = 0.0458713, Final residual = 0.0029542, No Iterations 1
GAMG:  Solving for p, Initial residual = 0.0194016, Final residual = 0.000917158, No Iterations 2
time step continuity errors : sum local = 13.0012, global = -5.50777, cumulative = -554.648
DILUPBiCGStab:  Solving for epsilon, Initial residual = 0.00859227, Final residual = 0.000507393, No Iterations 1
DILUPBiCGStab:  Solving for k, Initial residual = 0.0296676, Final residual = 0.00222954, No Iterations 1
ExecutionTime = 4.40239 s  ClockTime = 5 s

Time = 27s

DILUPBiCGStab:  Solving for Ux, Initial residual = 0.0053625, Final residual = 0.000516333, No Iterations 1
DILUPBiCGStab:  Solving for Uy, Initial residual = 0.00517928, Final residual = 0.000211125, No Iterations 2
DILUPBiCGStab:  Solving for Uz, Initial residual = 0.044091, Final residual = 0.00425181, No Iterations 1
DILUPBiCGStab:  Solving for h, Initial residual = 0.0452253, Final residual = 0.0028466, No Iterations 1
GAMG:  Solving for p, Initial residual = 0.0181039, Final residual = 0.00180217, No Iterations 1
time step continuity errors : sum local = 17.4924, global = -4.21466, cumulative = -558.863
DILUPBiCGStab:  Solving for epsilon, Initial residual = 0.00818396, Final residual = 0.000479175, No Iterations 1
DILUPBiCGStab:  Solving for k, Initial residual = 0.0288075, Final residual = 0.00214298, No Iterations 1
ExecutionTime = 4.52575 s  ClockTime = 5 s

Time = 28s

DILUPBiCGStab:  Solving for Ux, Initial residual = 0.0050251, Final residual = 0.000478864, No Iterations 1
DILUPBiCGStab:  Solving for Uy, Initial residual = 0.00494197, Final residual = 0.000197024, No Iterations 2
DILUPBiCGStab:  Solving for Uz, Initial residual = 0.0397704, Final residual = 0.00385663, No Iterations 1
DILUPBiCGStab:  Solving for h, Initial residual = 0.0445927, Final residual = 0.00274753, No Iterations 1
GAMG:  Solving for p, Initial residual = 0.017547, Final residual = 0.00100296, No Iterations 2
time step continuity errors : sum local = 10.7917, global = -2.89836, cumulative = -561.761
DILUPBiCGStab:  Solving for epsilon, Initial residual = 0.00779424, Final residual = 0.000451438, No Iterations 1
DILUPBiCGStab:  Solving for k, Initial residual = 0.0278186, Final residual = 0.00205473, No Iterations 1
ExecutionTime = 4.6555 s  ClockTime = 5 s

Time = 29s

DILUPBiCGStab:  Solving for Ux, Initial residual = 0.00492416, Final residual = 0.000470608, No Iterations 1
DILUPBiCGStab:  Solving for Uy, Initial residual = 0.00466789, Final residual = 0.000185413, No Iterations 2
DILUPBiCGStab:  Solving for Uz, Initial residual = 0.0393118, Final residual = 0.00384294, No Iterations 1
DILUPBiCGStab:  Solving for h, Initial residual = 0.0435254, Final residual = 0.00267415, No Iterations 1
GAMG:  Solving for p, Initial residual = 0.0159234, Final residual = 0.000848319, No Iterations 2
time step continuity errors : sum local = 8.69184, global = -2.04645, cumulative = -563.808
DILUPBiCGStab:  Solving for epsilon, Initial residual = 0.00733779, Final residual = 0.000418861, No Iterations 1
DILUPBiCGStab:  Solving for k, Initial residual = 0.0267468, Final residual = 0.00195248, No Iterations 1
ExecutionTime = 4.78892 s  ClockTime = 5 s

Time = 30s

DILUPBiCGStab:  Solving for Ux, Initial residual = 0.00469672, Final residual = 0.000451908, No Iterations 1
DILUPBiCGStab:  Solving for Uy, Initial residual = 0.00442335, Final residual = 0.000171844, No Iterations 2
DILUPBiCGStab:  Solving for Uz, Initial residual = 0.0367772, Final residual = 0.00361444, No Iterations 1
DILUPBiCGStab:  Solving for h, Initial residual = 0.042137, Final residual = 0.00257366, No Iterations 1
GAMG:  Solving for p, Initial residual = 0.0147699, Final residual = 0.000769403, No Iterations 2
time step continuity errors : sum local = 7.38838, global = -1.38881, cumulative = -565.196
DILUPBiCGStab:  Solving for epsilon, Initial residual = 0.0068794, Final residual = 0.000387643, No Iterations 1
DILUPBiCGStab:  Solving for k, Initial residual = 0.0256277, Final residual = 0.00184505, No Iterations 1
ExecutionTime = 4.92148 s  ClockTime = 5 s

Time = 31s

DILUPBiCGStab:  Solving for Ux, Initial residual = 0.00445071, Final residual = 0.000432828, No Iterations 1
DILUPBiCGStab:  Solving for Uy, Initial residual = 0.00420314, Final residual = 0.000158262, No Iterations 2
DILUPBiCGStab:  Solving for Uz, Initial residual = 0.0342454, Final residual = 0.00338983, No Iterations 1
DILUPBiCGStab:  Solving for h, Initial residual = 0.0406055, Final residual = 0.00247663, No Iterations 1
GAMG:  Solving for p, Initial residual = 0.0137105, Final residual = 0.000713128, No Iterations 2
time step continuity errors : sum local = 6.43081, global = -0.807086, cumulative = -566.003
DILUPBiCGStab:  Solving for epsilon, Initial residual = 0.00642408, Final residual = 0.00035733, No Iterations 1
DILUPBiCGStab:  Solving for k, Initial residual = 0.0244772, Final residual = 0.00173445, No Iterations 1
ExecutionTime = 5.05107 s  ClockTime = 6 s

Time = 32s

DILUPBiCGStab:  Solving for Ux, Initial residual = 0.00419862, Final residual = 0.000412878, No Iterations 1
DILUPBiCGStab:  Solving for Uy, Initial residual = 0.00397718, Final residual = 0.0001447, No Iterations 2
DILUPBiCGStab:  Solving for Uz, Initial residual = 0.032019, Final residual = 0.0031911, No Iterations 1
DILUPBiCGStab:  Solving for h, Initial residual = 0.0389706, Final residual = 0.00237685, No Iterations 1
GAMG:  Solving for p, Initial residual = 0.0126777, Final residual = 0.000678314, No Iterations 2
time step continuity errors : sum local = 5.76782, global = -0.27144, cumulative = -566.275
DILUPBiCGStab:  Solving for epsilon, Initial residual = 0.0059771, Final residual = 0.000327821, No Iterations 1
DILUPBiCGStab:  Solving for k, Initial residual = 0.0233153, Final residual = 0.00162351, No Iterations 1
ExecutionTime = 5.18058 s  ClockTime = 6 s

Time = 33s

DILUPBiCGStab:  Solving for Ux, Initial residual = 0.00394491, Final residual = 0.000392043, No Iterations 1
DILUPBiCGStab:  Solving for Uy, Initial residual = 0.00374732, Final residual = 0.000131637, No Iterations 2
DILUPBiCGStab:  Solving for Uz, Initial residual = 0.030113, Final residual = 0.00100461, No Iterations 2
DILUPBiCGStab:  Solving for h, Initial residual = 0.0372416, Final residual = 0.00227083, No Iterations 1
GAMG:  Solving for p, Initial residual = 0.0117374, Final residual = 0.000654647, No Iterations 2
time step continuity errors : sum local = 5.28987, global = 0.194538, cumulative = -566.08
DILUPBiCGStab:  Solving for epsilon, Initial residual = 0.00554731, Final residual = 0.000299423, No Iterations 1
DILUPBiCGStab:  Solving for k, Initial residual = 0.0221708, Final residual = 0.00151314, No Iterations 1
ExecutionTime = 5.31338 s  ClockTime = 6 s

Time = 34s

DILUPBiCGStab:  Solving for Ux, Initial residual = 0.00370044, Final residual = 0.000100368, No Iterations 2
DILUPBiCGStab:  Solving for Uy, Initial residual = 0.00352693, Final residual = 0.00034844, No Iterations 1
DILUPBiCGStab:  Solving for Uz, Initial residual = 0.0276096, Final residual = 0.00274875, No Iterations 1
DILUPBiCGStab:  Solving for h, Initial residual = 0.0355981, Final residual = 0.00216966, No Iterations 1
GAMG:  Solving for p, Initial residual = 0.0107018, Final residual = 0.000636396, No Iterations 2
time step continuity errors : sum local = 4.9174, global = 0.550806, cumulative = -565.53
DILUPBiCGStab:  Solving for epsilon, Initial residual = 0.00515787, Final residual = 0.000273395, No Iterations 1
DILUPBiCGStab:  Solving for k, Initial residual = 0.0210983, Final residual = 0.00140358, No Iterations 1
ExecutionTime = 5.44398 s  ClockTime = 6 s

Time = 35s

DILUPBiCGStab:  Solving for Ux, Initial residual = 0.00344065, Final residual = 0.00034337, No Iterations 1
DILUPBiCGStab:  Solving for Uy, Initial residual = 0.00336195, Final residual = 0.000320368, No Iterations 1
DILUPBiCGStab:  Solving for Uz, Initial residual = 0.0261981, Final residual = 0.000849616, No Iterations 2
DILUPBiCGStab:  Solving for h, Initial residual = 0.0336198, Final residual = 0.00204456, No Iterations 1
GAMG:  Solving for p, Initial residual = 0.00985731, Final residual = 0.000624315, No Iterations 2
time step continuity errors : sum local = 4.65425, global = 0.754567, cumulative = -564.775
DILUPBiCGStab:  Solving for epsilon, Initial residual = 0.00479193, Final residual = 0.000248961, No Iterations 1
DILUPBiCGStab:  Solving for k, Initial residual = 0.0200823, Final residual = 0.00129035, No Iterations 1
ExecutionTime = 5.57532 s  ClockTime = 6 s

Time = 36s

DILUPBiCGStab:  Solving for Ux, Initial residual = 0.00323383, Final residual = 8.29981e-05, No Iterations 2
DILUPBiCGStab:  Solving for Uy, Initial residual = 0.00319698, Final residual = 0.000299782, No Iterations 1
DILUPBiCGStab:  Solving for Uz, Initial residual = 0.0244586, Final residual = 0.000803043, No Iterations 2
DILUPBiCGStab:  Solving for h, Initial residual = 0.0319043, Final residual = 0.00191852, No Iterations 1
GAMG:  Solving for p, Initial residual = 0.00900723, Final residual = 0.000581313, No Iterations 2
time step continuity errors : sum local = 4.22617, global = 0.827965, cumulative = -563.947
DILUPBiCGStab:  Solving for epsilon, Initial residual = 0.00446757, Final residual = 0.000227609, No Iterations 1
DILUPBiCGStab:  Solving for k, Initial residual = 0.0191606, Final residual = 0.00117826, No Iterations 1
ExecutionTime = 5.7064 s  ClockTime = 6 s

Time = 37s

DILUPBiCGStab:  Solving for Ux, Initial residual = 0.00304038, Final residual = 0.000303936, No Iterations 1
DILUPBiCGStab:  Solving for Uy, Initial residual = 0.00302772, Final residual = 0.000278492, No Iterations 1
DILUPBiCGStab:  Solving for Uz, Initial residual = 0.0227689, Final residual = 0.00226869, No Iterations 1
DILUPBiCGStab:  Solving for h, Initial residual = 0.0300259, Final residual = 0.00179364, No Iterations 1
GAMG:  Solving for p, Initial residual = 0.00817734, Final residual = 0.000519342, No Iterations 2
time step continuity errors : sum local = 3.69758, global = 0.853765, cumulative = -563.093
DILUPBiCGStab:  Solving for epsilon, Initial residual = 0.00416091, Final residual = 0.00020792, No Iterations 1
DILUPBiCGStab:  Solving for k, Initial residual = 0.0182786, Final residual = 0.0010706, No Iterations 1
ExecutionTime = 5.83416 s  ClockTime = 6 s

Time = 38s

DILUPBiCGStab:  Solving for Ux, Initial residual = 0.00288757, Final residual = 0.000288218, No Iterations 1
DILUPBiCGStab:  Solving for Uy, Initial residual = 0.00283923, Final residual = 0.000260583, No Iterations 1
DILUPBiCGStab:  Solving for Uz, Initial residual = 0.022094, Final residual = 0.00218725, No Iterations 1
DILUPBiCGStab:  Solving for h, Initial residual = 0.0283199, Final residual = 0.00166595, No Iterations 1
GAMG:  Solving for p, Initial residual = 0.00737833, Final residual = 0.000445897, No Iterations 2
time step continuity errors : sum local = 3.11611, global = 0.863325, cumulative = -562.23
DILUPBiCGStab:  Solving for epsilon, Initial residual = 0.00387916, Final residual = 0.000190495, No Iterations 1
DILUPBiCGStab:  Solving for k, Initial residual = 0.0174561, Final residual = 0.000971982, No Iterations 1
ExecutionTime = 5.97051 s  ClockTime = 6 s

Time = 39s

DILUPBiCGStab:  Solving for Ux, Initial residual = 0.00274683, Final residual = 0.000271656, No Iterations 1
DILUPBiCGStab:  Solving for Uy, Initial residual = 0.00266137, Final residual = 0.000242302, No Iterations 1
DILUPBiCGStab:  Solving for Uz, Initial residual = 0.0210946, Final residual = 0.00206248, No Iterations 1
DILUPBiCGStab:  Solving for h, Initial residual = 0.0266875, Final residual = 0.00155238, No Iterations 1
GAMG:  Solving for p, Initial residual = 0.00665393, Final residual = 0.000387396, No Iterations 2
time step continuity errors : sum local = 2.61696, global = 0.900801, cumulative = -561.329
DILUPBiCGStab:  Solving for epsilon, Initial residual = 0.00362216, Final residual = 0.000175205, No Iterations 1
DILUPBiCGStab:  Solving for k, Initial residual = 0.0166888, Final residual = 0.000887436, No Iterations 1
ExecutionTime = 6.10257 s  ClockTime = 7 s

Time = 40s

DILUPBiCGStab:  Solving for Ux, Initial residual = 0.00261354, Final residual = 0.000254931, No Iterations 1
DILUPBiCGStab:  Solving for Uy, Initial residual = 0.00250215, Final residual = 0.000225545, No Iterations 1
DILUPBiCGStab:  Solving for Uz, Initial residual = 0.0198446, Final residual = 0.00191646, No Iterations 1
DILUPBiCGStab:  Solving for h, Initial residual = 0.0251647, Final residual = 0.00144746, No Iterations 1
GAMG:  Solving for p, Initial residual = 0.0059878, Final residual = 0.000346535, No Iterations 2
time step continuity errors : sum local = 2.23662, global = 0.9519, cumulative = -560.377
DILUPBiCGStab:  Solving for epsilon, Initial residual = 0.00339117, Final residual = 0.000161831, No Iterations 1
DILUPBiCGStab:  Solving for k, Initial residual = 0.0159644, Final residual = 0.000818787, No Iterations 1
ExecutionTime = 6.23127 s  ClockTime = 7 s

Time = 41s

DILUPBiCGStab:  Solving for Ux, Initial residual = 0.00249177, Final residual = 0.000238455, No Iterations 1
DILUPBiCGStab:  Solving for Uy, Initial residual = 0.00236013, Final residual = 0.000210519, No Iterations 1
DILUPBiCGStab:  Solving for Uz, Initial residual = 0.0185646, Final residual = 0.00176763, No Iterations 1
DILUPBiCGStab:  Solving for h, Initial residual = 0.0237713, Final residual = 0.00135036, No Iterations 1
GAMG:  Solving for p, Initial residual = 0.00538165, Final residual = 0.000312839, No Iterations 2
time step continuity errors : sum local = 2.06675, global = 1.00563, cumulative = -559.372
DILUPBiCGStab:  Solving for epsilon, Initial residual = 0.0031805, Final residual = 0.000149925, No Iterations 1
DILUPBiCGStab:  Solving for k, Initial residual = 0.0152743, Final residual = 0.000765331, No Iterations 1
ExecutionTime = 6.35966 s  ClockTime = 7 s

Time = 42s

DILUPBiCGStab:  Solving for Ux, Initial residual = 0.00237868, Final residual = 0.000222424, No Iterations 1
DILUPBiCGStab:  Solving for Uy, Initial residual = 0.00223089, Final residual = 0.000196574, No Iterations 1
DILUPBiCGStab:  Solving for Uz, Initial residual = 0.01736, Final residual = 0.00162465, No Iterations 1
DILUPBiCGStab:  Solving for h, Initial residual = 0.0224987, Final residual = 0.00125959, No Iterations 1
GAMG:  Solving for p, Initial residual = 0.00483, Final residual = 0.000281365, No Iterations 2
time step continuity errors : sum local = 1.97653, global = 1.05455, cumulative = -558.317
DILUPBiCGStab:  Solving for epsilon, Initial residual = 0.00298577, Final residual = 0.000139152, No Iterations 1
DILUPBiCGStab:  Solving for k, Initial residual = 0.0146151, Final residual = 0.00072188, No Iterations 1
ExecutionTime = 6.48828 s  ClockTime = 7 s

Time = 43s

DILUPBiCGStab:  Solving for Ux, Initial residual = 0.00227097, Final residual = 0.00020712, No Iterations 1
DILUPBiCGStab:  Solving for Uy, Initial residual = 0.00211127, Final residual = 0.000183715, No Iterations 1
DILUPBiCGStab:  Solving for Uz, Initial residual = 0.0162394, Final residual = 0.00149292, No Iterations 1
DILUPBiCGStab:  Solving for h, Initial residual = 0.0213171, Final residual = 0.00117446, No Iterations 1
GAMG:  Solving for p, Initial residual = 0.00432731, Final residual = 0.000252229, No Iterations 2
time step continuity errors : sum local = 1.89943, global = 1.0974, cumulative = -557.22
DILUPBiCGStab:  Solving for epsilon, Initial residual = 0.00280335, Final residual = 0.000129145, No Iterations 1
DILUPBiCGStab:  Solving for k, Initial residual = 0.0139828, Final residual = 0.000682992, No Iterations 1
ExecutionTime = 6.6169 s  ClockTime = 7 s

Time = 44s

DILUPBiCGStab:  Solving for Ux, Initial residual = 0.00216728, Final residual = 0.000192561, No Iterations 1
DILUPBiCGStab:  Solving for Uy, Initial residual = 0.00200175, Final residual = 0.000171902, No Iterations 1
DILUPBiCGStab:  Solving for Uz, Initial residual = 0.0152079, Final residual = 0.00137235, No Iterations 1
DILUPBiCGStab:  Solving for h, Initial residual = 0.0202296, Final residual = 0.00109489, No Iterations 1
GAMG:  Solving for p, Initial residual = 0.00387822, Final residual = 0.000229336, No Iterations 2
time step continuity errors : sum local = 1.85027, global = 1.14018, cumulative = -556.079
DILUPBiCGStab:  Solving for epsilon, Initial residual = 0.00263353, Final residual = 0.000119791, No Iterations 1
DILUPBiCGStab:  Solving for k, Initial residual = 0.0133759, Final residual = 0.000646405, No Iterations 1
ExecutionTime = 6.74874 s  ClockTime = 7 s

Time = 45s

DILUPBiCGStab:  Solving for Ux, Initial residual = 0.002066, Final residual = 0.000178629, No Iterations 1
DILUPBiCGStab:  Solving for Uy, Initial residual = 0.00190424, Final residual = 0.000161254, No Iterations 1
DILUPBiCGStab:  Solving for Uz, Initial residual = 0.0142323, Final residual = 0.00125944, No Iterations 1
DILUPBiCGStab:  Solving for h, Initial residual = 0.0192366, Final residual = 0.00102144, No Iterations 1
GAMG:  Solving for p, Initial residual = 0.00348162, Final residual = 0.00021713, No Iterations 2
time step continuity errors : sum local = 1.86231, global = 1.19116, cumulative = -554.888
DILUPBiCGStab:  Solving for epsilon, Initial residual = 0.00247392, Final residual = 0.000111045, No Iterations 1
DILUPBiCGStab:  Solving for k, Initial residual = 0.0127913, Final residual = 0.000609995, No Iterations 1
ExecutionTime = 6.87747 s  ClockTime = 7 s

Time = 46s

DILUPBiCGStab:  Solving for Ux, Initial residual = 0.00196849, Final residual = 0.000165752, No Iterations 1
DILUPBiCGStab:  Solving for Uy, Initial residual = 0.00181894, Final residual = 0.000151983, No Iterations 1
DILUPBiCGStab:  Solving for Uz, Initial residual = 0.0132933, Final residual = 0.00115248, No Iterations 1
DILUPBiCGStab:  Solving for h, Initial residual = 0.0183287, Final residual = 0.000953258, No Iterations 1
GAMG:  Solving for p, Initial residual = 0.00315129, Final residual = 0.000210448, No Iterations 2
time step continuity errors : sum local = 1.88796, global = 1.2401, cumulative = -553.648
DILUPBiCGStab:  Solving for epsilon, Initial residual = 0.00232399, Final residual = 0.000102867, No Iterations 1
DILUPBiCGStab:  Solving for k, Initial residual = 0.0122332, Final residual = 0.000573947, No Iterations 1
ExecutionTime = 7.01045 s  ClockTime = 7 s

Time = 47s

DILUPBiCGStab:  Solving for Ux, Initial residual = 0.00187276, Final residual = 0.000153458, No Iterations 1
DILUPBiCGStab:  Solving for Uy, Initial residual = 0.00174473, Final residual = 0.00014435, No Iterations 1
DILUPBiCGStab:  Solving for Uz, Initial residual = 0.0123916, Final residual = 0.00105156, No Iterations 1
DILUPBiCGStab:  Solving for h, Initial residual = 0.0174944, Final residual = 0.000890399, No Iterations 1
GAMG:  Solving for p, Initial residual = 0.00287583, Final residual = 0.000205836, No Iterations 2
time step continuity errors : sum local = 1.91096, global = 1.27181, cumulative = -552.376
DILUPBiCGStab:  Solving for epsilon, Initial residual = 0.00218419, Final residual = 9.51845e-05, No Iterations 1
DILUPBiCGStab:  Solving for k, Initial residual = 0.0117001, Final residual = 0.000538497, No Iterations 1
ExecutionTime = 7.13946 s  ClockTime = 8 s

Time = 48s

DILUPBiCGStab:  Solving for Ux, Initial residual = 0.00178455, Final residual = 0.000142124, No Iterations 1
DILUPBiCGStab:  Solving for Uy, Initial residual = 0.00167734, Final residual = 0.000137036, No Iterations 1
DILUPBiCGStab:  Solving for Uz, Initial residual = 0.0115604, Final residual = 0.000957824, No Iterations 1
DILUPBiCGStab:  Solving for h, Initial residual = 0.0167239, Final residual = 0.000832604, No Iterations 1
GAMG:  Solving for p, Initial residual = 0.0026424, Final residual = 0.000200287, No Iterations 2
time step continuity errors : sum local = 1.90961, global = 1.28401, cumulative = -551.092
DILUPBiCGStab:  Solving for epsilon, Initial residual = 0.00205525, Final residual = 8.79949e-05, No Iterations 1
DILUPBiCGStab:  Solving for k, Initial residual = 0.0111895, Final residual = 0.000504012, No Iterations 1
ExecutionTime = 7.26716 s  ClockTime = 8 s

Time = 49s

DILUPBiCGStab:  Solving for Ux, Initial residual = 0.00170356, Final residual = 0.000132222, No Iterations 1
DILUPBiCGStab:  Solving for Uy, Initial residual = 0.00160806, Final residual = 0.000129972, No Iterations 1
DILUPBiCGStab:  Solving for Uz, Initial residual = 0.0107978, Final residual = 0.000873612, No Iterations 1
DILUPBiCGStab:  Solving for h, Initial residual = 0.0160166, Final residual = 0.000780064, No Iterations 1
GAMG:  Solving for p, Initial residual = 0.00243926, Final residual = 0.000195113, No Iterations 2
time step continuity errors : sum local = 1.89706, global = 1.28146, cumulative = -549.811
DILUPBiCGStab:  Solving for epsilon, Initial residual = 0.00193571, Final residual = 8.13374e-05, No Iterations 1
DILUPBiCGStab:  Solving for k, Initial residual = 0.0106975, Final residual = 0.000471115, No Iterations 1
ExecutionTime = 7.39547 s  ClockTime = 8 s

Time = 50s

DILUPBiCGStab:  Solving for Ux, Initial residual = 0.00162898, Final residual = 0.000123418, No Iterations 1
DILUPBiCGStab:  Solving for Uy, Initial residual = 0.00153959, Final residual = 0.000123272, No Iterations 1
DILUPBiCGStab:  Solving for Uz, Initial residual = 0.0101018, Final residual = 0.000797699, No Iterations 1
DILUPBiCGStab:  Solving for h, Initial residual = 0.0153692, Final residual = 0.00073266, No Iterations 1
GAMG:  Solving for p, Initial residual = 0.00226186, Final residual = 0.000191707, No Iterations 2
time step continuity errors : sum local = 1.88611, global = 1.26855, cumulative = -548.542
DILUPBiCGStab:  Solving for epsilon, Initial residual = 0.00182518, Final residual = 7.531e-05, No Iterations 1
DILUPBiCGStab:  Solving for k, Initial residual = 0.0102267, Final residual = 0.000440211, No Iterations 1
ExecutionTime = 7.52373 s  ClockTime = 8 s

Time = 51s

DILUPBiCGStab:  Solving for Ux, Initial residual = 0.00156123, Final residual = 0.000115764, No Iterations 1
DILUPBiCGStab:  Solving for Uy, Initial residual = 0.00147351, Final residual = 0.000116911, No Iterations 1
DILUPBiCGStab:  Solving for Uz, Initial residual = 0.00945678, Final residual = 0.000728651, No Iterations 1
DILUPBiCGStab:  Solving for h, Initial residual = 0.0147787, Final residual = 0.000689651, No Iterations 1
GAMG:  Solving for p, Initial residual = 0.00210357, Final residual = 0.000189168, No Iterations 2
time step continuity errors : sum local = 1.86672, global = 1.24529, cumulative = -547.297
DILUPBiCGStab:  Solving for epsilon, Initial residual = 0.0017238, Final residual = 6.98763e-05, No Iterations 1
DILUPBiCGStab:  Solving for k, Initial residual = 0.00977984, Final residual = 0.00041121, No Iterations 1
ExecutionTime = 7.65123 s  ClockTime = 8 s

Time = 52s

DILUPBiCGStab:  Solving for Ux, Initial residual = 0.00150278, Final residual = 0.0001092, No Iterations 1
DILUPBiCGStab:  Solving for Uy, Initial residual = 0.00140902, Final residual = 0.000110723, No Iterations 1
DILUPBiCGStab:  Solving for Uz, Initial residual = 0.00886081, Final residual = 0.000665976, No Iterations 1
DILUPBiCGStab:  Solving for h, Initial residual = 0.0142399, Final residual = 0.000650117, No Iterations 1
GAMG:  Solving for p, Initial residual = 0.00196485, Final residual = 0.000187198, No Iterations 2
time step continuity errors : sum local = 1.83875, global = 1.21563, cumulative = -546.081
DILUPBiCGStab:  Solving for epsilon, Initial residual = 0.00163204, Final residual = 6.50478e-05, No Iterations 1
DILUPBiCGStab:  Solving for k, Initial residual = 0.00935651, Final residual = 0.000384353, No Iterations 1
ExecutionTime = 7.77867 s  ClockTime = 8 s

Time = 53s

DILUPBiCGStab:  Solving for Ux, Initial residual = 0.00145126, Final residual = 0.000103231, No Iterations 1
DILUPBiCGStab:  Solving for Uy, Initial residual = 0.0013458, Final residual = 0.000104576, No Iterations 1
DILUPBiCGStab:  Solving for Uz, Initial residual = 0.0083167, Final residual = 0.000609953, No Iterations 1
DILUPBiCGStab:  Solving for h, Initial residual = 0.0137489, Final residual = 0.000614042, No Iterations 1
GAMG:  Solving for p, Initial residual = 0.00184057, Final residual = 0.000145405, No Iterations 3
time step continuity errors : sum local = 1.61561, global = 1.19298, cumulative = -544.888
DILUPBiCGStab:  Solving for epsilon, Initial residual = 0.00154861, Final residual = 6.07821e-05, No Iterations 1
DILUPBiCGStab:  Solving for k, Initial residual = 0.00895271, Final residual = 0.000359488, No Iterations 1
ExecutionTime = 7.91421 s  ClockTime = 8 s

Time = 54s

DILUPBiCGStab:  Solving for Ux, Initial residual = 0.00142172, Final residual = 9.93502e-05, No Iterations 1
DILUPBiCGStab:  Solving for Uy, Initial residual = 0.00128925, Final residual = 9.95332e-05, No Iterations 1
DILUPBiCGStab:  Solving for Uz, Initial residual = 0.00782374, Final residual = 0.000561608, No Iterations 1
DILUPBiCGStab:  Solving for h, Initial residual = 0.0133124, Final residual = 0.000582615, No Iterations 1
GAMG:  Solving for p, Initial residual = 0.00168627, Final residual = 0.000136345, No Iterations 2
time step continuity errors : sum local = 1.49552, global = 1.07745, cumulative = -543.811
DILUPBiCGStab:  Solving for epsilon, Initial residual = 0.00147701, Final residual = 5.71698e-05, No Iterations 1
DILUPBiCGStab:  Solving for k, Initial residual = 0.00858502, Final residual = 0.000337259, No Iterations 1
ExecutionTime = 8.04224 s  ClockTime = 9 s

Time = 55s

DILUPBiCGStab:  Solving for Ux, Initial residual = 0.0013683, Final residual = 9.34298e-05, No Iterations 1
DILUPBiCGStab:  Solving for Uy, Initial residual = 0.00122371, Final residual = 9.26246e-05, No Iterations 1
DILUPBiCGStab:  Solving for Uz, Initial residual = 0.00733484, Final residual = 0.000511525, No Iterations 1
DILUPBiCGStab:  Solving for h, Initial residual = 0.0128958, Final residual = 0.000549861, No Iterations 1
GAMG:  Solving for p, Initial residual = 0.0016192, Final residual = 0.000134934, No Iterations 3
time step continuity errors : sum local = 1.50097, global = 1.04976, cumulative = -542.761
DILUPBiCGStab:  Solving for epsilon, Initial residual = 0.00141067, Final residual = 5.39274e-05, No Iterations 1
DILUPBiCGStab:  Solving for k, Initial residual = 0.00823382, Final residual = 0.000316123, No Iterations 1
ExecutionTime = 8.17781 s  ClockTime = 9 s

Time = 56s

DILUPBiCGStab:  Solving for Ux, Initial residual = 0.00134449, Final residual = 9.07368e-05, No Iterations 1
DILUPBiCGStab:  Solving for Uy, Initial residual = 0.00116413, Final residual = 8.79519e-05, No Iterations 1
DILUPBiCGStab:  Solving for Uz, Initial residual = 0.00690986, Final residual = 0.000472631, No Iterations 1
DILUPBiCGStab:  Solving for h, Initial residual = 0.0125403, Final residual = 0.000523211, No Iterations 1
GAMG:  Solving for p, Initial residual = 0.00149621, Final residual = 0.000148893, No Iterations 2
time step continuity errors : sum local = 1.51026, global = 0.978587, cumulative = -541.783
DILUPBiCGStab:  Solving for epsilon, Initial residual = 0.0013516, Final residual = 5.11961e-05, No Iterations 1
DILUPBiCGStab:  Solving for k, Initial residual = 0.00790895, Final residual = 0.000297342, No Iterations 1
ExecutionTime = 8.30663 s  ClockTime = 9 s

Time = 57s

DILUPBiCGStab:  Solving for Ux, Initial residual = 0.00130343, Final residual = 8.68018e-05, No Iterations 1
DILUPBiCGStab:  Solving for Uy, Initial residual = 0.00110461, Final residual = 8.18048e-05, No Iterations 1
DILUPBiCGStab:  Solving for Uz, Initial residual = 0.00648883, Final residual = 0.000433383, No Iterations 1
DILUPBiCGStab:  Solving for h, Initial residual = 0.0122019, Final residual = 0.00049583, No Iterations 1
GAMG:  Solving for p, Initial residual = 0.00143565, Final residual = 0.000142469, No Iterations 3
time step continuity errors : sum local = 1.47704, global = 0.988025, cumulative = -540.795
DILUPBiCGStab:  Solving for epsilon, Initial residual = 0.0012948, Final residual = 4.86634e-05, No Iterations 1
DILUPBiCGStab:  Solving for k, Initial residual = 0.00759122, Final residual = 0.000279224, No Iterations 1
ExecutionTime = 8.44182 s  ClockTime = 9 s

Time = 58s

DILUPBiCGStab:  Solving for Ux, Initial residual = 0.0012903, Final residual = 8.52246e-05, No Iterations 1
DILUPBiCGStab:  Solving for Uy, Initial residual = 0.00105153, Final residual = 7.77587e-05, No Iterations 1
DILUPBiCGStab:  Solving for Uz, Initial residual = 0.00613097, Final residual = 0.000403952, No Iterations 1
DILUPBiCGStab:  Solving for h, Initial residual = 0.0119024, Final residual = 0.000472684, No Iterations 1
GAMG:  Solving for p, Initial residual = 0.0013206, Final residual = 0.000112884, No Iterations 3
time step continuity errors : sum local = 1.26721, global = 0.931116, cumulative = -539.864
DILUPBiCGStab:  Solving for epsilon, Initial residual = 0.00124066, Final residual = 4.6383e-05, No Iterations 1
DILUPBiCGStab:  Solving for k, Initial residual = 0.00727602, Final residual = 0.000262775, No Iterations 1
ExecutionTime = 8.57732 s  ClockTime = 9 s

Time = 59s

DILUPBiCGStab:  Solving for Ux, Initial residual = 0.00127089, Final residual = 8.30528e-05, No Iterations 1
DILUPBiCGStab:  Solving for Uy, Initial residual = 0.000999829, Final residual = 7.29291e-05, No Iterations 1
DILUPBiCGStab:  Solving for Uz, Initial residual = 0.00577466, Final residual = 0.000373642, No Iterations 1
DILUPBiCGStab:  Solving for h, Initial residual = 0.0116143, Final residual = 0.000450498, No Iterations 1
GAMG:  Solving for p, Initial residual = 0.00124279, Final residual = 0.000102318, No Iterations 3
time step continuity errors : sum local = 1.17851, global = 0.851464, cumulative = -539.012
DILUPBiCGStab:  Solving for epsilon, Initial residual = 0.00118898, Final residual = 4.42889e-05, No Iterations 1
DILUPBiCGStab:  Solving for k, Initial residual = 0.00695407, Final residual = 0.000246883, No Iterations 1
ExecutionTime = 8.71138 s  ClockTime = 9 s

Time = 60s

DILUPBiCGStab:  Solving for Ux, Initial residual = 0.00124153, Final residual = 8.06726e-05, No Iterations 1
DILUPBiCGStab:  Solving for Uy, Initial residual = 0.000946977, Final residual = 6.83213e-05, No Iterations 1
DILUPBiCGStab:  Solving for Uz, Initial residual = 0.00543899, Final residual = 0.000346007, No Iterations 1
DILUPBiCGStab:  Solving for h, Initial residual = 0.0113335, Final residual = 0.000429984, No Iterations 1
GAMG:  Solving for p, Initial residual = 0.00118243, Final residual = 0.000108627, No Iterations 3
time step continuity errors : sum local = 1.18842, global = 0.806309, cumulative = -538.206
DILUPBiCGStab:  Solving for epsilon, Initial residual = 0.00113909, Final residual = 4.23031e-05, No Iterations 1
DILUPBiCGStab:  Solving for k, Initial residual = 0.00662673, Final residual = 0.000231662, No Iterations 1
ExecutionTime = 8.84738 s  ClockTime = 9 s

Time = 61s

DILUPBiCGStab:  Solving for Ux, Initial residual = 0.00120896, Final residual = 7.83312e-05, No Iterations 1
DILUPBiCGStab:  Solving for Uy, Initial residual = 0.000896115, Final residual = 6.42391e-05, No Iterations 1
DILUPBiCGStab:  Solving for Uz, Initial residual = 0.00511901, Final residual = 0.000321192, No Iterations 1
DILUPBiCGStab:  Solving for h, Initial residual = 0.0110535, Final residual = 0.000411168, No Iterations 1
GAMG:  Solving for p, Initial residual = 0.00112444, Final residual = 0.00011175, No Iterations 3
time step continuity errors : sum local = 1.18092, global = 0.788121, cumulative = -537.418
DILUPBiCGStab:  Solving for epsilon, Initial residual = 0.00109056, Final residual = 4.03941e-05, No Iterations 1
DILUPBiCGStab:  Solving for k, Initial residual = 0.00629625, Final residual = 0.000217168, No Iterations 1
ExecutionTime = 8.98249 s  ClockTime = 9 s

Time = 62s

DILUPBiCGStab:  Solving for Ux, Initial residual = 0.00117624, Final residual = 7.61209e-05, No Iterations 1
DILUPBiCGStab:  Solving for Uy, Initial residual = 0.000849011, Final residual = 6.06471e-05, No Iterations 1
DILUPBiCGStab:  Solving for Uz, Initial residual = 0.00480416, Final residual = 0.0002982, No Iterations 1
DILUPBiCGStab:  Solving for h, Initial residual = 0.0107495, Final residual = 0.000393459, No Iterations 1
GAMG:  Solving for p, Initial residual = 0.0010674, Final residual = 9.08076e-05, No Iterations 4
time step continuity errors : sum local = 1.03899, global = 0.767315, cumulative = -536.65
DILUPBiCGStab:  Solving for epsilon, Initial residual = 0.00104241, Final residual = 3.85007e-05, No Iterations 1
DILUPBiCGStab:  Solving for k, Initial residual = 0.00596485, Final residual = 0.000203454, No Iterations 1
ExecutionTime = 9.12419 s  ClockTime = 10 s

Time = 63s

DILUPBiCGStab:  Solving for Ux, Initial residual = 0.00115475, Final residual = 7.4364e-05, No Iterations 1
DILUPBiCGStab:  Solving for Uy, Initial residual = 0.000809371, Final residual = 5.78694e-05, No Iterations 1
DILUPBiCGStab:  Solving for Uz, Initial residual = 0.00449356, Final residual = 0.0002772, No Iterations 1
DILUPBiCGStab:  Solving for h, Initial residual = 0.0103947, Final residual = 0.000376531, No Iterations 1
GAMG:  Solving for p, Initial residual = 0.00100609, Final residual = 8.08281e-05, No Iterations 3
time step continuity errors : sum local = 0.960189, global = 0.6923, cumulative = -535.958
DILUPBiCGStab:  Solving for epsilon, Initial residual = 0.000996254, Final residual = 3.67726e-05, No Iterations 1
DILUPBiCGStab:  Solving for k, Initial residual = 0.00563564, Final residual = 0.000190194, No Iterations 1
ExecutionTime = 9.25871 s  ClockTime = 10 s

Time = 64s

DILUPBiCGStab:  Solving for Ux, Initial residual = 0.00110555, Final residual = 7.11978e-05, No Iterations 1
DILUPBiCGStab:  Solving for Uy, Initial residual = 0.000762609, Final residual = 5.44509e-05, No Iterations 1
DILUPBiCGStab:  Solving for Uz, Initial residual = 0.00418243, Final residual = 0.000255884, No Iterations 1
DILUPBiCGStab:  Solving for h, Initial residual = 0.00998038, Final residual = 0.000359052, No Iterations 1
GAMG:  Solving for p, Initial residual = 0.00098223, Final residual = 9.0914e-05, No Iterations 4
time step continuity errors : sum local = 1.00221, global = 0.687139, cumulative = -535.271
DILUPBiCGStab:  Solving for epsilon, Initial residual = 0.000951913, Final residual = 3.50415e-05, No Iterations 1
DILUPBiCGStab:  Solving for k, Initial residual = 0.00531521, Final residual = 0.000177568, No Iterations 1
ExecutionTime = 9.40043 s  ClockTime = 10 s

Time = 65s

DILUPBiCGStab:  Solving for Ux, Initial residual = 0.00106743, Final residual = 6.88356e-05, No Iterations 1
DILUPBiCGStab:  Solving for Uy, Initial residual = 0.0007247, Final residual = 5.24307e-05, No Iterations 1
DILUPBiCGStab:  Solving for Uz, Initial residual = 0.00388979, Final residual = 0.000237709, No Iterations 1
DILUPBiCGStab:  Solving for h, Initial residual = 0.00950851, Final residual = 0.000341181, No Iterations 1
GAMG:  Solving for p, Initial residual = 0.000921609, Final residual = 8.53622e-05, No Iterations 3
time step continuity errors : sum local = 0.949007, global = 0.651993, cumulative = -534.619
DILUPBiCGStab:  Solving for epsilon, Initial residual = 0.000908848, Final residual = 3.34256e-05, No Iterations 1
DILUPBiCGStab:  Solving for k, Initial residual = 0.00500374, Final residual = 0.000165791, No Iterations 1
ExecutionTime = 9.53435 s  ClockTime = 10 s

Time = 66s

DILUPBiCGStab:  Solving for Ux, Initial residual = 0.00101834, Final residual = 6.57278e-05, No Iterations 1
DILUPBiCGStab:  Solving for Uy, Initial residual = 0.000684088, Final residual = 4.99615e-05, No Iterations 1
DILUPBiCGStab:  Solving for Uz, Initial residual = 0.00358334, Final residual = 0.000218449, No Iterations 1
DILUPBiCGStab:  Solving for h, Initial residual = 0.00899321, Final residual = 0.000322851, No Iterations 1
GAMG:  Solving for p, Initial residual = 0.000897759, Final residual = 8.46587e-05, No Iterations 4
time step continuity errors : sum local = 0.92752, global = 0.635597, cumulative = -533.983
DILUPBiCGStab:  Solving for epsilon, Initial residual = 0.000867875, Final residual = 3.18542e-05, No Iterations 1
DILUPBiCGStab:  Solving for k, Initial residual = 0.00470537, Final residual = 0.000154698, No Iterations 1
ExecutionTime = 9.67646 s  ClockTime = 10 s

Time = 67s

DILUPBiCGStab:  Solving for Ux, Initial residual = 0.000978835, Final residual = 6.31937e-05, No Iterations 1
DILUPBiCGStab:  Solving for Uy, Initial residual = 0.000653277, Final residual = 4.87233e-05, No Iterations 1
DILUPBiCGStab:  Solving for Uz, Initial residual = 0.00330251, Final residual = 0.00020226, No Iterations 1
DILUPBiCGStab:  Solving for h, Initial residual = 0.00843336, Final residual = 0.000304097, No Iterations 1
GAMG:  Solving for p, Initial residual = 0.000846921, Final residual = 7.90831e-05, No Iterations 3
time step continuity errors : sum local = 0.878836, global = 0.595088, cumulative = -533.388
DILUPBiCGStab:  Solving for epsilon, Initial residual = 0.000828566, Final residual = 3.04221e-05, No Iterations 1
DILUPBiCGStab:  Solving for k, Initial residual = 0.00441997, Final residual = 0.000144404, No Iterations 1
ExecutionTime = 9.81091 s  ClockTime = 10 s

Time = 68s

DILUPBiCGStab:  Solving for Ux, Initial residual = 0.000926914, Final residual = 5.98776e-05, No Iterations 1
DILUPBiCGStab:  Solving for Uy, Initial residual = 0.000617715, Final residual = 4.67526e-05, No Iterations 1
DILUPBiCGStab:  Solving for Uz, Initial residual = 0.00301542, Final residual = 0.000185158, No Iterations 1
DILUPBiCGStab:  Solving for h, Initial residual = 0.00785441, Final residual = 0.000284992, No Iterations 1
GAMG:  Solving for p, Initial residual = 0.000831945, Final residual = 8.25061e-05, No Iterations 4
time step continuity errors : sum local = 0.885937, global = 0.585041, cumulative = -532.803
DILUPBiCGStab:  Solving for epsilon, Initial residual = 0.000792164, Final residual = 2.90573e-05, No Iterations 1
DILUPBiCGStab:  Solving for k, Initial residual = 0.00415227, Final residual = 0.000134811, No Iterations 1
ExecutionTime = 9.95312 s  ClockTime = 10 s

Time = 69s

DILUPBiCGStab:  Solving for Ux, Initial residual = 0.000883988, Final residual = 5.71884e-05, No Iterations 1
DILUPBiCGStab:  Solving for Uy, Initial residual = 0.000591379, Final residual = 4.58708e-05, No Iterations 1
DILUPBiCGStab:  Solving for Uz, Initial residual = 0.00276034, Final residual = 0.000171217, No Iterations 1
DILUPBiCGStab:  Solving for h, Initial residual = 0.00725495, Final residual = 0.000265748, No Iterations 1
GAMG:  Solving for p, Initial residual = 0.000780812, Final residual = 7.78955e-05, No Iterations 3
time step continuity errors : sum local = 0.845608, global = 0.557801, cumulative = -532.245
DILUPBiCGStab:  Solving for epsilon, Initial residual = 0.00075726, Final residual = 2.77952e-05, No Iterations 1
DILUPBiCGStab:  Solving for k, Initial residual = 0.00390058, Final residual = 0.000126144, No Iterations 1
ExecutionTime = 10.0882 s  ClockTime = 11 s

Time = 70s

DILUPBiCGStab:  Solving for Ux, Initial residual = 0.000833992, Final residual = 5.39311e-05, No Iterations 1
DILUPBiCGStab:  Solving for Uy, Initial residual = 0.000561194, Final residual = 4.40834e-05, No Iterations 1
DILUPBiCGStab:  Solving for Uz, Initial residual = 0.00249962, Final residual = 0.000156195, No Iterations 1
DILUPBiCGStab:  Solving for h, Initial residual = 0.00665998, Final residual = 0.000246725, No Iterations 1
GAMG:  Solving for p, Initial residual = 0.000767363, Final residual = 6.7509e-05, No Iterations 5
time step continuity errors : sum local = 0.773127, global = 0.547749, cumulative = -531.698
DILUPBiCGStab:  Solving for epsilon, Initial residual = 0.000725086, Final residual = 2.65678e-05, No Iterations 1
DILUPBiCGStab:  Solving for k, Initial residual = 0.0036687, Final residual = 0.00011826, No Iterations 1
ExecutionTime = 10.2366 s  ClockTime = 11 s

Time = 71s

DILUPBiCGStab:  Solving for Ux, Initial residual = 0.000801796, Final residual = 5.16332e-05, No Iterations 1
DILUPBiCGStab:  Solving for Uy, Initial residual = 0.000542957, Final residual = 4.36305e-05, No Iterations 1
DILUPBiCGStab:  Solving for Uz, Initial residual = 0.00227959, Final residual = 0.000144756, No Iterations 1
DILUPBiCGStab:  Solving for h, Initial residual = 0.00606559, Final residual = 0.000228206, No Iterations 1
GAMG:  Solving for p, Initial residual = 0.000721518, Final residual = 6.48996e-05, No Iterations 3
time step continuity errors : sum local = 0.75188, global = 0.49912, cumulative = -531.199
DILUPBiCGStab:  Solving for epsilon, Initial residual = 0.000694419, Final residual = 2.55141e-05, No Iterations 1
DILUPBiCGStab:  Solving for k, Initial residual = 0.00345078, Final residual = 0.000111171, No Iterations 1
ExecutionTime = 10.3706 s  ClockTime = 11 s

Time = 72s

DILUPBiCGStab:  Solving for Ux, Initial residual = 0.000747883, Final residual = 4.81914e-05, No Iterations 1
DILUPBiCGStab:  Solving for Uy, Initial residual = 0.000514779, Final residual = 4.13977e-05, No Iterations 1
DILUPBiCGStab:  Solving for Uz, Initial residual = 0.00204869, Final residual = 0.000131444, No Iterations 1
DILUPBiCGStab:  Solving for h, Initial residual = 0.00550163, Final residual = 0.000210312, No Iterations 1
GAMG:  Solving for p, Initial residual = 0.000722606, Final residual = 7.04405e-05, No Iterations 5
time step continuity errors : sum local = 0.774326, global = 0.505213, cumulative = -530.693
DILUPBiCGStab:  Solving for epsilon, Initial residual = 0.000667337, Final residual = 2.44685e-05, No Iterations 1
DILUPBiCGStab:  Solving for k, Initial residual = 0.00325272, Final residual = 0.000104625, No Iterations 1
ExecutionTime = 10.5187 s  ClockTime = 11 s

Time = 73s

DILUPBiCGStab:  Solving for Ux, Initial residual = 0.000710456, Final residual = 4.60536e-05, No Iterations 1
DILUPBiCGStab:  Solving for Uy, Initial residual = 0.000501507, Final residual = 4.10933e-05, No Iterations 1
DILUPBiCGStab:  Solving for Uz, Initial residual = 0.00187361, Final residual = 0.000122668, No Iterations 1
DILUPBiCGStab:  Solving for h, Initial residual = 0.0049603, Final residual = 0.000193413, No Iterations 1
GAMG:  Solving for p, Initial residual = 0.000661986, Final residual = 6.29291e-05, No Iterations 3
time step continuity errors : sum local = 0.725869, global = 0.48315, cumulative = -530.21
DILUPBiCGStab:  Solving for epsilon, Initial residual = 0.000640565, Final residual = 2.3506e-05, No Iterations 1
DILUPBiCGStab:  Solving for k, Initial residual = 0.00306733, Final residual = 9.88021e-05, No Iterations 1
ExecutionTime = 10.6528 s  ClockTime = 11 s

Time = 74s

DILUPBiCGStab:  Solving for Ux, Initial residual = 0.000664699, Final residual = 4.31653e-05, No Iterations 1
DILUPBiCGStab:  Solving for Uy, Initial residual = 0.000475778, Final residual = 3.88544e-05, No Iterations 1
DILUPBiCGStab:  Solving for Uz, Initial residual = 0.00168017, Final residual = 0.00011149, No Iterations 1
DILUPBiCGStab:  Solving for h, Initial residual = 0.00445989, Final residual = 0.00017738, No Iterations 1
GAMG:  Solving for p, Initial residual = 0.000664551, Final residual = 6.47291e-05, No Iterations 5
time step continuity errors : sum local = 0.729382, global = 0.479247, cumulative = -529.731
DILUPBiCGStab:  Solving for epsilon, Initial residual = 0.000617043, Final residual = 2.25804e-05, No Iterations 1
DILUPBiCGStab:  Solving for k, Initial residual = 0.0028973, Final residual = 9.3273e-05, No Iterations 1
ExecutionTime = 10.8007 s  ClockTime = 11 s

Time = 75s

DILUPBiCGStab:  Solving for Ux, Initial residual = 0.000631932, Final residual = 4.13588e-05, No Iterations 1
DILUPBiCGStab:  Solving for Uy, Initial residual = 0.000466117, Final residual = 3.86161e-05, No Iterations 1
DILUPBiCGStab:  Solving for Uz, Initial residual = 0.00154111, Final residual = 0.000104632, No Iterations 1
DILUPBiCGStab:  Solving for h, Initial residual = 0.00399729, Final residual = 0.000162689, No Iterations 1
GAMG:  Solving for p, Initial residual = 0.000612695, Final residual = 6.04322e-05, No Iterations 3
time step continuity errors : sum local = 0.699907, global = 0.457501, cumulative = -529.273
DILUPBiCGStab:  Solving for epsilon, Initial residual = 0.000593689, Final residual = 2.17287e-05, No Iterations 1
DILUPBiCGStab:  Solving for k, Initial residual = 0.00273762, Final residual = 8.83187e-05, No Iterations 1
ExecutionTime = 10.9415 s  ClockTime = 11 s

Time = 76s

DILUPBiCGStab:  Solving for Ux, Initial residual = 0.000591395, Final residual = 3.89534e-05, No Iterations 1
DILUPBiCGStab:  Solving for Uy, Initial residual = 0.000442875, Final residual = 3.6389e-05, No Iterations 1
DILUPBiCGStab:  Solving for Uz, Initial residual = 0.00138652, Final residual = 9.54022e-05, No Iterations 1
DILUPBiCGStab:  Solving for h, Initial residual = 0.00358122, Final residual = 0.000148751, No Iterations 1
GAMG:  Solving for p, Initial residual = 0.000618754, Final residual = 5.30893e-05, No Iterations 6
time step continuity errors : sum local = 0.653624, global = 0.464282, cumulative = -528.809
DILUPBiCGStab:  Solving for epsilon, Initial residual = 0.000573329, Final residual = 2.08795e-05, No Iterations 1
DILUPBiCGStab:  Solving for k, Initial residual = 0.00259151, Final residual = 8.36314e-05, No Iterations 1
ExecutionTime = 11.1025 s  ClockTime = 12 s

Time = 77s

DILUPBiCGStab:  Solving for Ux, Initial residual = 0.000570345, Final residual = 3.77949e-05, No Iterations 1
DILUPBiCGStab:  Solving for Uy, Initial residual = 0.000437455, Final residual = 3.64266e-05, No Iterations 1
DILUPBiCGStab:  Solving for Uz, Initial residual = 0.00128768, Final residual = 9.04329e-05, No Iterations 1
DILUPBiCGStab:  Solving for h, Initial residual = 0.00321186, Final residual = 0.000136394, No Iterations 1
GAMG:  Solving for p, Initial residual = 0.000575753, Final residual = 4.54374e-05, No Iterations 4
time step continuity errors : sum local = 0.618617, global = 0.430457, cumulative = -528.379
DILUPBiCGStab:  Solving for epsilon, Initial residual = 0.000553589, Final residual = 2.01829e-05, No Iterations 1
DILUPBiCGStab:  Solving for k, Initial residual = 0.00245404, Final residual = 7.94702e-05, No Iterations 1
ExecutionTime = 11.2442 s  ClockTime = 12 s

Time = 78s

DILUPBiCGStab:  Solving for Ux, Initial residual = 0.000532146, Final residual = 3.58423e-05, No Iterations 1
DILUPBiCGStab:  Solving for Uy, Initial residual = 0.000416473, Final residual = 3.45144e-05, No Iterations 1
DILUPBiCGStab:  Solving for Uz, Initial residual = 0.00117052, Final residual = 8.30736e-05, No Iterations 1
DILUPBiCGStab:  Solving for h, Initial residual = 0.00288459, Final residual = 0.00012457, No Iterations 1
GAMG:  Solving for p, Initial residual = 0.000572758, Final residual = 5.50723e-05, No Iterations 5
time step continuity errors : sum local = 0.669172, global = 0.434429, cumulative = -527.944
DILUPBiCGStab:  Solving for epsilon, Initial residual = 0.0005364, Final residual = 1.94777e-05, No Iterations 1
DILUPBiCGStab:  Solving for k, Initial residual = 0.00232731, Final residual = 7.54715e-05, No Iterations 1
ExecutionTime = 11.3917 s  ClockTime = 12 s

Time = 79s

DILUPBiCGStab:  Solving for Ux, Initial residual = 0.000504633, Final residual = 3.4666e-05, No Iterations 1
DILUPBiCGStab:  Solving for Uy, Initial residual = 0.000407319, Final residual = 3.38502e-05, No Iterations 1
DILUPBiCGStab:  Solving for Uz, Initial residual = 0.00108445, Final residual = 7.80292e-05, No Iterations 1
DILUPBiCGStab:  Solving for h, Initial residual = 0.00260562, Final residual = 0.000113979, No Iterations 1
GAMG:  Solving for p, Initial residual = 0.000534544, Final residual = 4.53507e-05, No Iterations 4
time step continuity errors : sum local = 0.616262, global = 0.432265, cumulative = -527.512
DILUPBiCGStab:  Solving for epsilon, Initial residual = 0.00051988, Final residual = 1.8831e-05, No Iterations 1
DILUPBiCGStab:  Solving for k, Initial residual = 0.00221092, Final residual = 7.18991e-05, No Iterations 1
ExecutionTime = 11.5333 s  ClockTime = 12 s

Time = 80s

DILUPBiCGStab:  Solving for Ux, Initial residual = 0.000480659, Final residual = 3.3493e-05, No Iterations 1
DILUPBiCGStab:  Solving for Uy, Initial residual = 0.000390614, Final residual = 3.24529e-05, No Iterations 1
DILUPBiCGStab:  Solving for Uz, Initial residual = 0.00099922, Final residual = 7.25676e-05, No Iterations 1
DILUPBiCGStab:  Solving for h, Initial residual = 0.0023664, Final residual = 0.000104309, No Iterations 1
GAMG:  Solving for p, Initial residual = 0.000529246, Final residual = 4.53004e-05, No Iterations 5
time step continuity errors : sum local = 0.612947, global = 0.425256, cumulative = -527.087
DILUPBiCGStab:  Solving for epsilon, Initial residual = 0.000505458, Final residual = 1.8235e-05, No Iterations 1
DILUPBiCGStab:  Solving for k, Initial residual = 0.00210481, Final residual = 6.83993e-05, No Iterations 1
ExecutionTime = 11.6835 s  ClockTime = 12 s

Time = 81s

DILUPBiCGStab:  Solving for Ux, Initial residual = 0.000460996, Final residual = 3.25782e-05, No Iterations 1
DILUPBiCGStab:  Solving for Uy, Initial residual = 0.000381099, Final residual = 3.18222e-05, No Iterations 1
DILUPBiCGStab:  Solving for Uz, Initial residual = 0.000932357, Final residual = 6.85058e-05, No Iterations 1
DILUPBiCGStab:  Solving for h, Initial residual = 0.0021621, Final residual = 9.59185e-05, No Iterations 1
GAMG:  Solving for p, Initial residual = 0.000505602, Final residual = 4.28985e-05, No Iterations 4
time step continuity errors : sum local = 0.600983, global = 0.412937, cumulative = -526.674
DILUPBiCGStab:  Solving for epsilon, Initial residual = 0.000492212, Final residual = 1.77282e-05, No Iterations 1
DILUPBiCGStab:  Solving for k, Initial residual = 0.00200913, Final residual = 6.49831e-05, No Iterations 1
ExecutionTime = 11.8254 s  ClockTime = 12 s

Time = 82s

DILUPBiCGStab:  Solving for Ux, Initial residual = 0.000438968, Final residual = 3.15596e-05, No Iterations 1
DILUPBiCGStab:  Solving for Uy, Initial residual = 0.000366291, Final residual = 3.05316e-05, No Iterations 1
DILUPBiCGStab:  Solving for Uz, Initial residual = 0.000864654, Final residual = 6.39198e-05, No Iterations 1
DILUPBiCGStab:  Solving for h, Initial residual = 0.00199063, Final residual = 8.85837e-05, No Iterations 1
GAMG:  Solving for p, Initial residual = 0.000499809, Final residual = 4.28245e-05, No Iterations 5
time step continuity errors : sum local = 0.599529, global = 0.413978, cumulative = -526.26
DILUPBiCGStab:  Solving for epsilon, Initial residual = 0.000481106, Final residual = 1.72452e-05, No Iterations 1
DILUPBiCGStab:  Solving for k, Initial residual = 0.00192475, Final residual = 6.16319e-05, No Iterations 1
ExecutionTime = 11.9769 s  ClockTime = 12 s

Time = 83s

DILUPBiCGStab:  Solving for Ux, Initial residual = 0.00042179, Final residual = 3.07515e-05, No Iterations 1
DILUPBiCGStab:  Solving for Uy, Initial residual = 0.000357036, Final residual = 2.99322e-05, No Iterations 1
DILUPBiCGStab:  Solving for Uz, Initial residual = 0.00081255, Final residual = 6.06001e-05, No Iterations 1
DILUPBiCGStab:  Solving for h, Initial residual = 0.00184745, Final residual = 8.26974e-05, No Iterations 1
GAMG:  Solving for p, Initial residual = 0.000474891, Final residual = 3.93174e-05, No Iterations 4
time step continuity errors : sum local = 0.578843, global = 0.404987, cumulative = -525.855
DILUPBiCGStab:  Solving for epsilon, Initial residual = 0.000471007, Final residual = 1.6825e-05, No Iterations 1
DILUPBiCGStab:  Solving for k, Initial residual = 0.00185143, Final residual = 5.8556e-05, No Iterations 1
ExecutionTime = 12.1188 s  ClockTime = 13 s

Time = 84s

DILUPBiCGStab:  Solving for Ux, Initial residual = 0.000402272, Final residual = 2.98202e-05, No Iterations 1
DILUPBiCGStab:  Solving for Uy, Initial residual = 0.000343767, Final residual = 2.87186e-05, No Iterations 1
DILUPBiCGStab:  Solving for Uz, Initial residual = 0.000758702, Final residual = 5.6705e-05, No Iterations 1
DILUPBiCGStab:  Solving for h, Initial residual = 0.00172679, Final residual = 7.77574e-05, No Iterations 1
GAMG:  Solving for p, Initial residual = 0.000469074, Final residual = 3.95101e-05, No Iterations 5
time step continuity errors : sum local = 0.580599, global = 0.406488, cumulative = -525.448
DILUPBiCGStab:  Solving for epsilon, Initial residual = 0.000462893, Final residual = 1.64333e-05, No Iterations 1
DILUPBiCGStab:  Solving for k, Initial residual = 0.00178911, Final residual = 5.57686e-05, No Iterations 1
ExecutionTime = 12.2669 s  ClockTime = 13 s

Time = 85s

DILUPBiCGStab:  Solving for Ux, Initial residual = 0.000386789, Final residual = 2.90534e-05, No Iterations 1
DILUPBiCGStab:  Solving for Uy, Initial residual = 0.000334729, Final residual = 2.81279e-05, No Iterations 1
DILUPBiCGStab:  Solving for Uz, Initial residual = 0.000718272, Final residual = 5.40293e-05, No Iterations 1
DILUPBiCGStab:  Solving for h, Initial residual = 0.00162178, Final residual = 7.37097e-05, No Iterations 1
GAMG:  Solving for p, Initial residual = 0.000444335, Final residual = 3.55272e-05, No Iterations 4
time step continuity errors : sum local = 0.5547, global = 0.39675, cumulative = -525.052
DILUPBiCGStab:  Solving for epsilon, Initial residual = 0.000455513, Final residual = 1.60905e-05, No Iterations 1
DILUPBiCGStab:  Solving for k, Initial residual = 0.00173736, Final residual = 5.34493e-05, No Iterations 1
ExecutionTime = 12.4083 s  ClockTime = 13 s

Time = 86s

DILUPBiCGStab:  Solving for Ux, Initial residual = 0.000368999, Final residual = 2.81691e-05, No Iterations 1
DILUPBiCGStab:  Solving for Uy, Initial residual = 0.000323631, Final residual = 2.70052e-05, No Iterations 1
DILUPBiCGStab:  Solving for Uz, Initial residual = 0.000677421, Final residual = 5.08547e-05, No Iterations 1
DILUPBiCGStab:  Solving for h, Initial residual = 0.00152812, Final residual = 7.00998e-05, No Iterations 1
GAMG:  Solving for p, Initial residual = 0.00043832, Final residual = 4.35373e-05, No Iterations 4
time step continuity errors : sum local = 0.598804, global = 0.38823, cumulative = -524.663
DILUPBiCGStab:  Solving for epsilon, Initial residual = 0.000449594, Final residual = 1.58011e-05, No Iterations 1
DILUPBiCGStab:  Solving for k, Initial residual = 0.00169472, Final residual = 5.14522e-05, No Iterations 1
ExecutionTime = 12.5501 s  ClockTime = 13 s

Time = 87s

DILUPBiCGStab:  Solving for Ux, Initial residual = 0.000351204, Final residual = 2.73133e-05, No Iterations 1
DILUPBiCGStab:  Solving for Uy, Initial residual = 0.000313318, Final residual = 2.61376e-05, No Iterations 1
DILUPBiCGStab:  Solving for Uz, Initial residual = 0.000645243, Final residual = 4.85792e-05, No Iterations 1
DILUPBiCGStab:  Solving for h, Initial residual = 0.0014382, Final residual = 6.6703e-05, No Iterations 1
GAMG:  Solving for p, Initial residual = 0.000419279, Final residual = 3.88503e-05, No Iterations 4
[...]
DILUPBiCGStab:  Solving for Uz, Initial residual = 0.000246096, Final residual = 1.49985e-05, No Iterations 1
DILUPBiCGStab:  Solving for h, Initial residual = 0.000163719, Final residual = 9.5646e-06, No Iterations 1
GAMG:  Solving for p, Initial residual = 6.14073e-05, Final residual = 5.71945e-06, No Iterations 2
time step continuity errors : sum local = 0.0777906, global = 0.0463583, cumulative = -515.818
DILUPBiCGStab:  Solving for epsilon, Initial residual = 9.98718e-05, Final residual = 3.27059e-06, No Iterations 1
DILUPBiCGStab:  Solving for k, Initial residual = 0.000398117, Final residual = 1.05472e-05, No Iterations 1
ExecutionTime = 18.7113 s  ClockTime = 19 s

Time = 130s

DILUPBiCGStab:  Solving for Ux, Initial residual = 3.74411e-05, Final residual = 3.47251e-06, No Iterations 1
DILUPBiCGStab:  Solving for Uy, Initial residual = 4.24847e-05, Final residual = 2.91675e-06, No Iterations 1
DILUPBiCGStab:  Solving for Uz, Initial residual = 0.000237482, Final residual = 1.4386e-05, No Iterations 1
DILUPBiCGStab:  Solving for h, Initial residual = 0.000158746, Final residual = 9.25299e-06, No Iterations 1
GAMG:  Solving for p, Initial residual = 5.8311e-05, Final residual = 4.25253e-06, No Iterations 3
time step continuity errors : sum local = 0.0690077, global = 0.0436228, cumulative = -515.775
DILUPBiCGStab:  Solving for epsilon, Initial residual = 9.34914e-05, Final residual = 3.06794e-06, No Iterations 1
DILUPBiCGStab:  Solving for k, Initial residual = 0.000374712, Final residual = 9.92357e-06, No Iterations 1
ExecutionTime = 18.8448 s  ClockTime = 19 s

Time = 131s

DILUPBiCGStab:  Solving for Ux, Initial residual = 3.56096e-05, Final residual = 3.23652e-06, No Iterations 1
DILUPBiCGStab:  Solving for Uy, Initial residual = 4.00571e-05, Final residual = 2.76854e-06, No Iterations 1
DILUPBiCGStab:  Solving for Uz, Initial residual = 0.000230756, Final residual = 1.39144e-05, No Iterations 1
DILUPBiCGStab:  Solving for h, Initial residual = 0.00015395, Final residual = 8.95958e-06, No Iterations 1
GAMG:  Solving for p, Initial residual = 5.42783e-05, Final residual = 4.33613e-06, No Iterations 2
time step continuity errors : sum local = 0.0636211, global = 0.0387426, cumulative = -515.736
DILUPBiCGStab:  Solving for epsilon, Initial residual = 8.74152e-05, Final residual = 2.86648e-06, No Iterations 1
DILUPBiCGStab:  Solving for k, Initial residual = 0.000352633, Final residual = 9.37798e-06, No Iterations 1
ExecutionTime = 18.9713 s  ClockTime = 19 s

Time = 132s

DILUPBiCGStab:  Solving for Ux, Initial residual = 3.40298e-05, Final residual = 3.09198e-06, No Iterations 1
DILUPBiCGStab:  Solving for Uy, Initial residual = 3.75768e-05, Final residual = 2.52915e-06, No Iterations 1
DILUPBiCGStab:  Solving for Uz, Initial residual = 0.000221394, Final residual = 1.32265e-05, No Iterations 1
DILUPBiCGStab:  Solving for h, Initial residual = 0.000149867, Final residual = 8.7158e-06, No Iterations 1
GAMG:  Solving for p, Initial residual = 5.18526e-05, Final residual = 4.63483e-06, No Iterations 2
time step continuity errors : sum local = 0.0620457, global = 0.0346586, cumulative = -515.701
DILUPBiCGStab:  Solving for epsilon, Initial residual = 8.16233e-05, Final residual = 2.67723e-06, No Iterations 1
DILUPBiCGStab:  Solving for k, Initial residual = 0.000331362, Final residual = 8.82177e-06, No Iterations 1
ExecutionTime = 19.0975 s  ClockTime = 20 s

Time = 133s

DILUPBiCGStab:  Solving for Ux, Initial residual = 3.24406e-05, Final residual = 2.91339e-06, No Iterations 1
DILUPBiCGStab:  Solving for Uy, Initial residual = 3.54391e-05, Final residual = 2.3514e-06, No Iterations 1
DILUPBiCGStab:  Solving for Uz, Initial residual = 0.000213072, Final residual = 1.26685e-05, No Iterations 1
DILUPBiCGStab:  Solving for h, Initial residual = 0.000146094, Final residual = 8.43716e-06, No Iterations 1
GAMG:  Solving for p, Initial residual = 4.91843e-05, Final residual = 4.74755e-06, No Iterations 2
time step continuity errors : sum local = 0.0598133, global = 0.0309238, cumulative = -515.671
DILUPBiCGStab:  Solving for epsilon, Initial residual = 7.61265e-05, Final residual = 2.50206e-06, No Iterations 1
DILUPBiCGStab:  Solving for k, Initial residual = 0.000310974, Final residual = 8.29465e-06, No Iterations 1
ExecutionTime = 19.2237 s  ClockTime = 20 s

Time = 134s

DILUPBiCGStab:  Solving for Ux, Initial residual = 3.09791e-05, Final residual = 2.74264e-06, No Iterations 1
DILUPBiCGStab:  Solving for Uy, Initial residual = 3.33199e-05, Final residual = 2.18789e-06, No Iterations 1
DILUPBiCGStab:  Solving for Uz, Initial residual = 0.000205484, Final residual = 1.21627e-05, No Iterations 1
DILUPBiCGStab:  Solving for h, Initial residual = 0.00014259, Final residual = 8.18089e-06, No Iterations 1
GAMG:  Solving for p, Initial residual = 4.66372e-05, Final residual = 4.55251e-06, No Iterations 2
time step continuity errors : sum local = 0.0560616, global = 0.027666, cumulative = -515.643
DILUPBiCGStab:  Solving for epsilon, Initial residual = 7.09278e-05, Final residual = 2.33648e-06, No Iterations 1
DILUPBiCGStab:  Solving for k, Initial residual = 0.000291516, Final residual = 7.79275e-06, No Iterations 1
ExecutionTime = 19.3502 s  ClockTime = 20 s

Time = 135s

DILUPBiCGStab:  Solving for Ux, Initial residual = 2.96431e-05, Final residual = 2.58699e-06, No Iterations 1
DILUPBiCGStab:  Solving for Uy, Initial residual = 3.12737e-05, Final residual = 2.02822e-06, No Iterations 1
DILUPBiCGStab:  Solving for Uz, Initial residual = 0.000197958, Final residual = 1.16591e-05, No Iterations 1
DILUPBiCGStab:  Solving for h, Initial residual = 0.000139383, Final residual = 7.93199e-06, No Iterations 1
GAMG:  Solving for p, Initial residual = 4.41068e-05, Final residual = 4.18877e-06, No Iterations 2
time step continuity errors : sum local = 0.051482, global = 0.0247396, cumulative = -515.618
DILUPBiCGStab:  Solving for epsilon, Initial residual = 6.60048e-05, Final residual = 2.17734e-06, No Iterations 1
DILUPBiCGStab:  Solving for k, Initial residual = 0.000273003, Final residual = 7.3182e-06, No Iterations 1
ExecutionTime = 19.4769 s  ClockTime = 20 s

Time = 136s

DILUPBiCGStab:  Solving for Ux, Initial residual = 2.84094e-05, Final residual = 2.44632e-06, No Iterations 1
DILUPBiCGStab:  Solving for Uy, Initial residual = 2.93724e-05, Final residual = 1.87811e-06, No Iterations 1
DILUPBiCGStab:  Solving for Uz, Initial residual = 0.000190363, Final residual = 1.11562e-05, No Iterations 1
DILUPBiCGStab:  Solving for h, Initial residual = 0.000136473, Final residual = 7.69204e-06, No Iterations 1
GAMG:  Solving for p, Initial residual = 4.16064e-05, Final residual = 3.81978e-06, No Iterations 2
time step continuity errors : sum local = 0.0469798, global = 0.0220107, cumulative = -515.596
DILUPBiCGStab:  Solving for epsilon, Initial residual = 6.13447e-05, Final residual = 2.02594e-06, No Iterations 1
DILUPBiCGStab:  Solving for k, Initial residual = 0.000255422, Final residual = 6.86994e-06, No Iterations 1
ExecutionTime = 19.6028 s  ClockTime = 20 s

Time = 137s

DILUPBiCGStab:  Solving for Ux, Initial residual = 2.7258e-05, Final residual = 2.31596e-06, No Iterations 1
DILUPBiCGStab:  Solving for Uy, Initial residual = 2.76158e-05, Final residual = 1.7405e-06, No Iterations 1
DILUPBiCGStab:  Solving for Uz, Initial residual = 0.000182777, Final residual = 1.06602e-05, No Iterations 1
DILUPBiCGStab:  Solving for h, Initial residual = 0.000133843, Final residual = 7.4604e-06, No Iterations 1
GAMG:  Solving for p, Initial residual = 3.91964e-05, Final residual = 3.55162e-06, No Iterations 2
time step continuity errors : sum local = 0.0431641, global = 0.0197084, cumulative = -515.576
DILUPBiCGStab:  Solving for epsilon, Initial residual = 5.69459e-05, Final residual = 1.88381e-06, No Iterations 1
DILUPBiCGStab:  Solving for k, Initial residual = 0.000238729, Final residual = 6.44508e-06, No Iterations 1
ExecutionTime = 19.7294 s  ClockTime = 20 s

Time = 138s

DILUPBiCGStab:  Solving for Ux, Initial residual = 2.61266e-05, Final residual = 2.18943e-06, No Iterations 1
DILUPBiCGStab:  Solving for Uy, Initial residual = 2.59639e-05, Final residual = 1.61386e-06, No Iterations 1
DILUPBiCGStab:  Solving for Uz, Initial residual = 0.000175328, Final residual = 1.01772e-05, No Iterations 1
DILUPBiCGStab:  Solving for h, Initial residual = 0.000131461, Final residual = 7.23586e-06, No Iterations 1
GAMG:  Solving for p, Initial residual = 3.69555e-05, Final residual = 3.25233e-06, No Iterations 2
time step continuity errors : sum local = 0.0393613, global = 0.0176389, cumulative = -515.559
DILUPBiCGStab:  Solving for epsilon, Initial residual = 5.28024e-05, Final residual = 1.7508e-06, No Iterations 1
DILUPBiCGStab:  Solving for k, Initial residual = 0.000222897, Final residual = 6.03917e-06, No Iterations 1
ExecutionTime = 19.8565 s  ClockTime = 20 s

Time = 139s

DILUPBiCGStab:  Solving for Ux, Initial residual = 2.50641e-05, Final residual = 2.0692e-06, No Iterations 1
DILUPBiCGStab:  Solving for Uy, Initial residual = 2.4413e-05, Final residual = 1.4979e-06, No Iterations 1
DILUPBiCGStab:  Solving for Uz, Initial residual = 0.000167996, Final residual = 9.70336e-06, No Iterations 1
DILUPBiCGStab:  Solving for h, Initial residual = 0.000129298, Final residual = 7.01518e-06, No Iterations 1
GAMG:  Solving for p, Initial residual = 3.48015e-05, Final residual = 2.98783e-06, No Iterations 2
time step continuity errors : sum local = 0.0358611, global = 0.0156114, cumulative = -515.543
DILUPBiCGStab:  Solving for epsilon, Initial residual = 4.89029e-05, Final residual = 1.62581e-06, No Iterations 1
DILUPBiCGStab:  Solving for k, Initial residual = 0.000207904, Final residual = 5.6527e-06, No Iterations 1
ExecutionTime = 19.9837 s  ClockTime = 20 s

Time = 140s

DILUPBiCGStab:  Solving for Ux, Initial residual = 2.40532e-05, Final residual = 1.95501e-06, No Iterations 1
DILUPBiCGStab:  Solving for Uy, Initial residual = 2.29448e-05, Final residual = 1.38979e-06, No Iterations 1
DILUPBiCGStab:  Solving for Uz, Initial residual = 0.000160834, Final residual = 9.24673e-06, No Iterations 1
DILUPBiCGStab:  Solving for h, Initial residual = 0.000127324, Final residual = 6.79782e-06, No Iterations 1
GAMG:  Solving for p, Initial residual = 3.27661e-05, Final residual = 2.78491e-06, No Iterations 2
time step continuity errors : sum local = 0.0328199, global = 0.0135742, cumulative = -515.53
DILUPBiCGStab:  Solving for epsilon, Initial residual = 4.52383e-05, Final residual = 1.50841e-06, No Iterations 1
DILUPBiCGStab:  Solving for k, Initial residual = 0.000193727, Final residual = 5.28452e-06, No Iterations 1
ExecutionTime = 20.1096 s  ClockTime = 21 s

Time = 141s

DILUPBiCGStab:  Solving for Ux, Initial residual = 2.30773e-05, Final residual = 1.84543e-06, No Iterations 1
DILUPBiCGStab:  Solving for Uy, Initial residual = 2.15555e-05, Final residual = 1.28865e-06, No Iterations 1
DILUPBiCGStab:  Solving for Uz, Initial residual = 0.000153847, Final residual = 8.80488e-06, No Iterations 1
DILUPBiCGStab:  Solving for h, Initial residual = 0.000125516, Final residual = 6.58485e-06, No Iterations 1
GAMG:  Solving for p, Initial residual = 3.08546e-05, Final residual = 2.63339e-06, No Iterations 2
time step continuity errors : sum local = 0.0301876, global = 0.0115704, cumulative = -515.518
DILUPBiCGStab:  Solving for epsilon, Initial residual = 4.17985e-05, Final residual = 1.39793e-06, No Iterations 1
DILUPBiCGStab:  Solving for k, Initial residual = 0.000180343, Final residual = 4.93434e-06, No Iterations 1
ExecutionTime = 20.2359 s  ClockTime = 21 s

Time = 142s

DILUPBiCGStab:  Solving for Ux, Initial residual = 2.21318e-05, Final residual = 1.74024e-06, No Iterations 1
DILUPBiCGStab:  Solving for Uy, Initial residual = 2.02443e-05, Final residual = 1.1943e-06, No Iterations 1
DILUPBiCGStab:  Solving for Uz, Initial residual = 0.000147021, Final residual = 8.37516e-06, No Iterations 1
DILUPBiCGStab:  Solving for h, Initial residual = 0.000123843, Final residual = 6.37545e-06, No Iterations 1
GAMG:  Solving for p, Initial residual = 2.90459e-05, Final residual = 2.51043e-06, No Iterations 2
time step continuity errors : sum local = 0.0278382, global = 0.00967368, cumulative = -515.508
DILUPBiCGStab:  Solving for epsilon, Initial residual = 3.85736e-05, Final residual = 1.29399e-06, No Iterations 1
DILUPBiCGStab:  Solving for k, Initial residual = 0.000167713, Final residual = 4.60241e-06, No Iterations 1
ExecutionTime = 20.3622 s  ClockTime = 21 s

Time = 143s

DILUPBiCGStab:  Solving for Ux, Initial residual = 2.12203e-05, Final residual = 1.63988e-06, No Iterations 1
DILUPBiCGStab:  Solving for Uy, Initial residual = 1.90071e-05, Final residual = 1.10639e-06, No Iterations 1
DILUPBiCGStab:  Solving for Uz, Initial residual = 0.000140341, Final residual = 7.95711e-06, No Iterations 1
DILUPBiCGStab:  Solving for h, Initial residual = 0.000122257, Final residual = 6.16897e-06, No Iterations 1
GAMG:  Solving for p, Initial residual = 2.73222e-05, Final residual = 2.3993e-06, No Iterations 2
time step continuity errors : sum local = 0.0256767, global = 0.00793244, cumulative = -515.5
DILUPBiCGStab:  Solving for epsilon, Initial residual = 3.55521e-05, Final residual = 1.19626e-06, No Iterations 1
DILUPBiCGStab:  Solving for k, Initial residual = 0.000155806, Final residual = 4.28795e-06, No Iterations 1
ExecutionTime = 20.4886 s  ClockTime = 21 s

Time = 144s

DILUPBiCGStab:  Solving for Ux, Initial residual = 2.03436e-05, Final residual = 1.54474e-06, No Iterations 1
DILUPBiCGStab:  Solving for Uy, Initial residual = 1.78395e-05, Final residual = 1.02436e-06, No Iterations 1
DILUPBiCGStab:  Solving for Uz, Initial residual = 0.000133807, Final residual = 7.5502e-06, No Iterations 1
DILUPBiCGStab:  Solving for h, Initial residual = 0.000120715, Final residual = 5.96437e-06, No Iterations 1
GAMG:  Solving for p, Initial residual = 2.56695e-05, Final residual = 2.31393e-06, No Iterations 2
time step continuity errors : sum local = 0.0237749, global = 0.0064401, cumulative = -515.494
DILUPBiCGStab:  Solving for epsilon, Initial residual = 3.27244e-05, Final residual = 1.10445e-06, No Iterations 1
DILUPBiCGStab:  Solving for k, Initial residual = 0.000144596, Final residual = 3.99046e-06, No Iterations 1
ExecutionTime = 20.6148 s  ClockTime = 21 s

Time = 145s

DILUPBiCGStab:  Solving for Ux, Initial residual = 1.94943e-05, Final residual = 1.45441e-06, No Iterations 1
DILUPBiCGStab:  Solving for Uy, Initial residual = 1.67349e-05, Final residual = 9.4748e-07, No Iterations 1
DILUPBiCGStab:  Solving for Uz, Initial residual = 0.000127432, Final residual = 7.15534e-06, No Iterations 1
DILUPBiCGStab:  Solving for h, Initial residual = 0.000119166, Final residual = 5.76205e-06, No Iterations 1
GAMG:  Solving for p, Initial residual = 2.40982e-05, Final residual = 2.22847e-06, No Iterations 2
time step continuity errors : sum local = 0.0219475, global = 0.00511666, cumulative = -515.489
DILUPBiCGStab:  Solving for epsilon, Initial residual = 3.00833e-05, Final residual = 1.01833e-06, No Iterations 1
DILUPBiCGStab:  Solving for k, Initial residual = 0.000134055, Final residual = 3.70902e-06, No Iterations 1
ExecutionTime = 20.7409 s  ClockTime = 21 s

Time = 146s

DILUPBiCGStab:  Solving for Ux, Initial residual = 1.8686e-05, Final residual = 1.37061e-06, No Iterations 1
DILUPBiCGStab:  Solving for Uy, Initial residual = 1.56884e-05, Final residual = 8.7557e-07, No Iterations 1
DILUPBiCGStab:  Solving for Uz, Initial residual = 0.000121194, Final residual = 6.77143e-06, No Iterations 1
DILUPBiCGStab:  Solving for h, Initial residual = 0.000117595, Final residual = 5.56238e-06, No Iterations 1
GAMG:  Solving for p, Initial residual = 2.25887e-05, Final residual = 2.11894e-06, No Iterations 2
time step continuity errors : sum local = 0.0201462, global = 0.00392346, cumulative = -515.485
DILUPBiCGStab:  Solving for epsilon, Initial residual = 2.76189e-05, Final residual = 9.37521e-07, No Iterations 1
DILUPBiCGStab:  Solving for k, Initial residual = 0.00012416, Final residual = 3.44236e-06, No Iterations 1
ExecutionTime = 20.8679 s  ClockTime = 21 s

Time = 147s

DILUPBiCGStab:  Solving for Ux, Initial residual = 1.79182e-05, Final residual = 1.29059e-06, No Iterations 1
DILUPBiCGStab:  Solving for Uy, Initial residual = 1.47028e-05, Final residual = 8.08879e-07, No Iterations 1
DILUPBiCGStab:  Solving for Uz, Initial residual = 0.000115104, Final residual = 6.39643e-06, No Iterations 1
DILUPBiCGStab:  Solving for h, Initial residual = 0.000116008, Final residual = 5.36516e-06, No Iterations 1
GAMG:  Solving for p, Initial residual = 2.11471e-05, Final residual = 2.01592e-06, No Iterations 2
time step continuity errors : sum local = 0.0184846, global = 0.002752, cumulative = -515.482
DILUPBiCGStab:  Solving for epsilon, Initial residual = 2.53209e-05, Final residual = 8.61756e-07, No Iterations 1
DILUPBiCGStab:  Solving for k, Initial residual = 0.000114884, Final residual = 3.19052e-06, No Iterations 1
ExecutionTime = 21.0001 s  ClockTime = 21 s

Time = 148s

DILUPBiCGStab:  Solving for Ux, Initial residual = 1.71872e-05, Final residual = 1.21556e-06, No Iterations 1
DILUPBiCGStab:  Solving for Uy, Initial residual = 1.37719e-05, Final residual = 7.47056e-07, No Iterations 1
DILUPBiCGStab:  Solving for Uz, Initial residual = 0.000109172, Final residual = 6.03319e-06, No Iterations 1
DILUPBiCGStab:  Solving for h, Initial residual = 0.000114403, Final residual = 5.1727e-06, No Iterations 1
GAMG:  Solving for p, Initial residual = 1.97861e-05, Final residual = 1.95003e-06, No Iterations 2
time step continuity errors : sum local = 0.0171134, global = 0.00159193, cumulative = -515.481
DILUPBiCGStab:  Solving for epsilon, Initial residual = 2.318e-05, Final residual = 7.9084e-07, No Iterations 1
DILUPBiCGStab:  Solving for k, Initial residual = 0.000106189, Final residual = 2.95267e-06, No Iterations 1
ExecutionTime = 21.1261 s  ClockTime = 22 s

Time = 149s

DILUPBiCGStab:  Solving for Ux, Initial residual = 1.64839e-05, Final residual = 1.14546e-06, No Iterations 1
DILUPBiCGStab:  Solving for Uy, Initial residual = 1.28901e-05, Final residual = 6.89724e-07, No Iterations 1
DILUPBiCGStab:  Solving for Uz, Initial residual = 0.0001034, Final residual = 5.68203e-06, No Iterations 1
DILUPBiCGStab:  Solving for h, Initial residual = 0.000112764, Final residual = 4.98563e-06, No Iterations 1
GAMG:  Solving for p, Initial residual = 1.85084e-05, Final residual = 1.63e-06, No Iterations 3
time step continuity errors : sum local = 0.0147436, global = 0.00161653, cumulative = -515.479
DILUPBiCGStab:  Solving for epsilon, Initial residual = 2.11877e-05, Final residual = 7.24324e-07, No Iterations 1
DILUPBiCGStab:  Solving for k, Initial residual = 9.80418e-05, Final residual = 2.72679e-06, No Iterations 1
ExecutionTime = 21.2592 s  ClockTime = 22 s

Time = 150s

DILUPBiCGStab:  Solving for Ux, Initial residual = 1.58393e-05, Final residual = 1.07992e-06, No Iterations 1
DILUPBiCGStab:  Solving for Uy, Initial residual = 1.21136e-05, Final residual = 6.41764e-07, No Iterations 1
DILUPBiCGStab:  Solving for Uz, Initial residual = 9.77939e-05, Final residual = 5.35075e-06, No Iterations 1
DILUPBiCGStab:  Solving for h, Initial residual = 0.000110785, Final residual = 4.79801e-06, No Iterations 1
GAMG:  Solving for p, Initial residual = 1.70456e-05, Final residual = 1.51724e-06, No Iterations 2
time step continuity errors : sum local = 0.0130683, global = 0.000762287, cumulative = -515.478
DILUPBiCGStab:  Solving for epsilon, Initial residual = 1.93324e-05, Final residual = 6.6216e-07, No Iterations 1
DILUPBiCGStab:  Solving for k, Initial residual = 9.04214e-05, Final residual = 2.51685e-06, No Iterations 1
ExecutionTime = 21.3858 s  ClockTime = 22 s


SIMPLE solution converged in 150 iterations

End

