/*---------------------------------------------------------------------------*\
  =========                 |
  \\      /  F ield         | OpenFOAM: The Open Source CFD Toolbox
   \\    /   O peration     | Website:  https://openfoam.org
    \\  /    A nd           | Version:  10
     \\/     M anipulation  |
\*---------------------------------------------------------------------------*/
Build  : 10
Exec   : blockMesh
Date   : Mar 02 2026
Time   : 02:29:20
Host   : "alphagpu17"
PID    : 4073529
I/O    : uncollated
Case   : /mnt/home/DDN_Copy/rpi/pxu10/standard/qwen-benchmark/runs/wedge/2
nProcs : 1
sigFpe : Enabling floating point exception trapping (FOAM_SIGFPE).
fileModificationChecking : Monitoring run-time modified files using timeStampMaster (fileModificationSkew 10)
allowSystemOperations : Allowing user-supplied system call operations

// * * * * * * * * * * * * * * * * * * * * * * * * * * * * * * * * * * * * * //
Create time

Reading "blockMeshDict"

Creating block mesh from
    "system/blockMeshDict"
Creating block edges
No non-planar block faces defined
Creating topology blocks
Creating topology patches

Creating block mesh topology
--> FOAM Warning : 
    From function virtual void Foam::wedgePolyPatch::calcGeometry(Foam::PstreamBuffers&)
    in file meshes/polyMesh/polyPatches/constraint/wedge/wedgePolyPatch.C at line 70
    Wedge patch 'wedge' is not planar.
At local face at (0.07619 -0.005 0) the normal (0 -1 0) differs from the average normal (0 0 0) by 1
Either correct the patch or split it into planar parts
--> FOAM Warning : 
    From function virtual void Foam::wedgePolyPatch::calcGeometry(Foam::PstreamBuffers&)
    in file meshes/polyMesh/polyPatches/constraint/wedge/wedgePolyPatch.C at line 70
    Wedge patch 'wedge' is not planar.
At local face at (0.07619 0.1524 0) the normal (0 1 0) differs from the average normal (0 0 0) by 1
Either correct the patch or split it into planar parts
#0  Foam::error::printStack(Foam::Ostream&) at ??:?
#1  Foam::sigFpe::sigHandler(int) at ??:?
#2  ? in "/lib64/libc.so.6"
#3  ? at wedgePolyPatch.C:?
#4  Foam::polyBoundaryMesh::calcGeometry() at ??:?
#5  Foam::polyMesh::polyMesh(Foam::IOobject const&, Foam::Field<Foam::Vector<double> >&&, Foam::List<Foam::cellShape> const&, Foam::List<Foam::List<Foam::face> > const&, Foam::List<Foam::word> const&, Foam::PtrList<Foam::dictionary> const&, Foam::word const&, Foam::word const&, bool) at ??:?
#6  Foam::blockMesh::createTopology(Foam::IOdictionary const&, Foam::word const&) at ??:?
#7  Foam::blockMesh::blockMesh(Foam::IOdictionary const&, Foam::word const&) at ??:?
#8  ? at ??:?
#9  ? in "/lib64/libc.so.6"
#10  __libc_start_main in "/lib64/libc.so.6"
#11  ? at ??:?
