/*---------------------------------------------------------------------------*\
  =========                 |
  \\      /  F ield         | OpenFOAM: The Open Source CFD Toolbox
   \\    /   O peration     | Website:  https://openfoam.org
    \\  /    A nd           | Version:  10
     \\/     M anipulation  |
\*---------------------------------------------------------------------------*/
Build  : 10
Exec   : blockMesh
Date   : Apr 19 2026
Time   : 00:17:31
Host   : "alphagpu11"
PID    : 2790140
I/O    : uncollated
Case   : /mnt/home/DDN_Copy/rpi/pxu10/criteria/qwen3.5-35b-benchmark/runs/Cylinder/3
nProcs : 1
sigFpe : Enabling floating point exception trapping (FOAM_SIGFPE).
fileModificationChecking : Monitoring run-time modified files using timeStampMaster (fileModificationSkew 10)
allowSystemOperations : Allowing user-supplied system call operations

// * * * * * * * * * * * * * * * * * * * * * * * * * * * * * * * * * * * * * //
Create time

Deleting polyMesh directory
    "/mnt/home/DDN_Copy/rpi/pxu10/criteria/qwen3.5-35b-benchmark/runs/Cylinder/3/constant/polyMesh"
Reading "blockMeshDict"

Creating block mesh from
    "system/blockMeshDict"
Creating block edges
No non-planar block faces defined
Creating topology blocks
Creating topology patches

Creating block mesh topology

Check topology

	Basic statistics
		Number of internal faces : 4
		Number of boundary faces : 16
		Number of defined boundary faces : 16
		Number of undefined boundary faces : 0
	Checking patch -> block consistency

Creating block offsets
Creating merge list .

Creating polyMesh from blockMesh
Creating patches
Creating cells
Creating points with scale 1
    Block 0 cell size :
        i : 0.1 0.09562704246 0.1 0.09562704246 
        j : 0.1030776406 .. 0.1030776406 0.0989988952 .. 0.0989988952 0.1030776406 .. 0.1030776406 0.0989988952 .. 0.0989988952 
        k : 0.1
    Block 1 cell size :
        i : 0.1 .. 0.1 0.09625811654 .. 0.09625811654 0.1 .. 0.1 0.09625811654 .. 0.09625811654 
        j : 0.09013878189 .. 0.09013878189 0.08918029491 .. 0.08918029491 0.09013878189 .. 0.09013878189 0.08918029491 .. 0.08918029491 
        k : 0.1
    Block 2 cell size :
        i : 0.1 0.09562704246 0.1 0.09562704246 
        j : 0.1030776406 .. 0.1030776406 0.0989988952 .. 0.0989988952 0.1030776406 .. 0.1030776406 0.0989988952 .. 0.0989988952 
        k : 0.1
    Block 3 cell size :
        i : 0.1 .. 0.1 0.09625811654 .. 0.09625811654 0.1 .. 0.1 0.09625811654 .. 0.09625811654 
        j : 0.09013878189 .. 0.09013878189 0.08918029491 .. 0.08918029491 0.09013878189 .. 0.09013878189 0.08918029491 .. 0.08918029491 
        k : 0.1

Writing polyMesh
----------------
Mesh Information
----------------
  boundingBox: (-2 -1 0) (2 1 0.1)
  nPoints: 5040
  nCells: 2400
  nFaces: 9720
  nInternalFaces: 4680
----------------
Patches
----------------
  patch 0 (start: 4680 size: 20) name: inlet
  patch 1 (start: 4700 size: 20) name: outlet
  patch 2 (start: 4720 size: 80) name: walls
  patch 3 (start: 4800 size: 120) name: cylinder
  patch 4 (start: 4920 size: 4800) name: frontAndBack

End

