/*---------------------------------------------------------------------------*\
  =========                 |
  \\      /  F ield         | OpenFOAM: The Open Source CFD Toolbox
   \\    /   O peration     | Website:  https://openfoam.org
    \\  /    A nd           | Version:  10
     \\/     M anipulation  |
\*---------------------------------------------------------------------------*/
Build  : 10
Exec   : buoyantFoam
Date   : Mar 01 2026
Time   : 23:53:55
Host   : "alphagpu17"
PID    : 3824066
I/O    : uncollated
Case   : /mnt/home/DDN_Copy/rpi/pxu10/standard/qwen-benchmark/runs/BernardCells/2
nProcs : 1
sigFpe : Enabling floating point exception trapping (FOAM_SIGFPE).
fileModificationChecking : Monitoring run-time modified files using timeStampMaster (fileModificationSkew 10)
allowSystemOperations : Allowing user-supplied system call operations

// * * * * * * * * * * * * * * * * * * * * * * * * * * * * * * * * * * * * * //
Create time

Create mesh for time = 0


PIMPLE: No convergence criteria found


PIMPLE: Operating solver in transient mode with 1 outer corrector
PIMPLE: Operating solver in PISO mode


Reading thermophysical properties

Selecting thermodynamics package pureMixture<const<perfectGas<specie>>,sensibleInternalEnergy>


--> FOAM FATAL ERROR: 
Unknown fluidThermo type pureMixture<const<perfectGas<specie>>,sensibleInternalEnergy>

Valid fluidThermo types are:

130
(
hePsiThermo<coefficientWilkeMultiComponentMixture<const<eConst<perfectGas<specie>>,sensibleInternalEnergy>>>
hePsiThermo<coefficientWilkeMultiComponentMixture<const<hConst<perfectGas<specie>>,sensibleEnthalpy>>>
hePsiThermo<coefficientWilkeMultiComponentMixture<const<hConst<perfectGas<specie>>,sensibleInternalEnergy>>>
hePsiThermo<coefficientWilkeMultiComponentMixture<const<janaf<perfectGas<specie>>,sensibleEnthalpy>>>
hePsiThermo<coefficientWilkeMultiComponentMixture<const<janaf<perfectGas<specie>>,sensibleInternalEnergy>>>
hePsiThermo<coefficientWilkeMultiComponentMixture<sutherland<eConst<perfectGas<specie>>,sensibleInternalEnergy>>>
hePsiThermo<coefficientWilkeMultiComponentMixture<sutherland<hConst<perfectGas<specie>>,sensibleEnthalpy>>>
hePsiThermo<coefficientWilkeMultiComponentMixture<sutherland<hConst<perfectGas<specie>>,sensibleInternalEnergy>>>
hePsiThermo<coefficientWilkeMultiComponentMixture<sutherland<janaf<perfectGas<specie>>,sensibleEnthalpy>>>
hePsiThermo<coefficientWilkeMultiComponentMixture<sutherland<janaf<perfectGas<specie>>,sensibleInternalEnergy>>>
hePsiThermo<multiComponentMixture<const<eConst<perfectGas<specie>>,sensibleInternalEnergy>>>
hePsiThermo<multiComponentMixture<const<hConst<perfectGas<specie>>,sensibleEnthalpy>>>
hePsiThermo<multiComponentMixture<const<hConst<perfectGas<specie>>,sensibleInternalEnergy>>>
hePsiThermo<multiComponentMixture<const<janaf<perfectGas<specie>>,sensibleEnthalpy>>>
hePsiThermo<multiComponentMixture<const<janaf<perfectGas<specie>>,sensibleInternalEnergy>>>
hePsiThermo<multiComponentMixture<sutherland<eConst<perfectGas<specie>>,sensibleInternalEnergy>>>
hePsiThermo<multiComponentMixture<sutherland<hConst<perfectGas<specie>>,sensibleEnthalpy>>>
hePsiThermo<multiComponentMixture<sutherland<hConst<perfectGas<specie>>,sensibleInternalEnergy>>>
hePsiThermo<multiComponentMixture<sutherland<janaf<perfectGas<specie>>,sensibleEnthalpy>>>
hePsiThermo<multiComponentMixture<sutherland<janaf<perfectGas<specie>>,sensibleInternalEnergy>>>
hePsiThermo<pureMixture<const<eConst<Boussinesq<specie>>,sensibleInternalEnergy>>>
hePsiThermo<pureMixture<const<eConst<perfectGas<specie>>,sensibleInternalEnergy>>>
hePsiThermo<pureMixture<const<hConst<Boussinesq<specie>>,sensibleEnthalpy>>>
hePsiThermo<pureMixture<const<hConst<Boussinesq<specie>>,sensibleInternalEnergy>>>
hePsiThermo<pureMixture<const<hConst<perfectGas<specie>>,sensibleEnthalpy>>>
hePsiThermo<pureMixture<const<hConst<perfectGas<specie>>,sensibleInternalEnergy>>>
hePsiThermo<pureMixture<const<janaf<Boussinesq<specie>>,sensibleEnthalpy>>>
hePsiThermo<pureMixture<const<janaf<Boussinesq<specie>>,sensibleInternalEnergy>>>
hePsiThermo<pureMixture<const<janaf<perfectGas<specie>>,sensibleEnthalpy>>>
hePsiThermo<pureMixture<const<janaf<perfectGas<specie>>,sensibleInternalEnergy>>>
hePsiThermo<pureMixture<sutherland<eConst<Boussinesq<specie>>,sensibleInternalEnergy>>>
hePsiThermo<pureMixture<sutherland<eConst<perfectGas<specie>>,sensibleInternalEnergy>>>
hePsiThermo<pureMixture<sutherland<hConst<Boussinesq<specie>>,sensibleEnthalpy>>>
hePsiThermo<pureMixture<sutherland<hConst<Boussinesq<specie>>,sensibleInternalEnergy>>>
hePsiThermo<pureMixture<sutherland<hConst<perfectGas<specie>>,sensibleEnthalpy>>>
hePsiThermo<pureMixture<sutherland<hConst<perfectGas<specie>>,sensibleInternalEnergy>>>
hePsiThermo<pureMixture<sutherland<janaf<Boussinesq<specie>>,sensibleEnthalpy>>>
hePsiThermo<pureMixture<sutherland<janaf<Boussinesq<specie>>,sensibleInternalEnergy>>>
hePsiThermo<pureMixture<sutherland<janaf<perfectGas<specie>>,sensibleEnthalpy>>>
hePsiThermo<pureMixture<sutherland<janaf<perfectGas<specie>>,sensibleInternalEnergy>>>
heRhoThermo<coefficientWilkeMultiComponentMixture<const<eConst<perfectGas<specie>>,sensibleInternalEnergy>>>
heRhoThermo<coefficientWilkeMultiComponentMixture<const<hConst<perfectGas<specie>>,sensibleEnthalpy>>>
heRhoThermo<coefficientWilkeMultiComponentMixture<const<hConst<perfectGas<specie>>,sensibleInternalEnergy>>>
heRhoThermo<coefficientWilkeMultiComponentMixture<const<janaf<perfectGas<specie>>,sensibleEnthalpy>>>
heRhoThermo<coefficientWilkeMultiComponentMixture<const<janaf<perfectGas<specie>>,sensibleInternalEnergy>>>
heRhoThermo<coefficientWilkeMultiComponentMixture<sutherland<eConst<perfectGas<specie>>,sensibleInternalEnergy>>>
heRhoThermo<coefficientWilkeMultiComponentMixture<sutherland<hConst<perfectGas<specie>>,sensibleEnthalpy>>>
heRhoThermo<coefficientWilkeMultiComponentMixture<sutherland<hConst<perfectGas<specie>>,sensibleInternalEnergy>>>
heRhoThermo<coefficientWilkeMultiComponentMixture<sutherland<janaf<perfectGas<specie>>,sensibleEnthalpy>>>
heRhoThermo<coefficientWilkeMultiComponentMixture<sutherland<janaf<perfectGas<specie>>,sensibleInternalEnergy>>>
heRhoThermo<multiComponentMixture<const<eConst<perfectGas<specie>>,sensibleInternalEnergy>>>
heRhoThermo<multiComponentMixture<const<eConst<rPolynomial<specie>>,sensibleInternalEnergy>>>
heRhoThermo<multiComponentMixture<const<eConst<rhoConst<specie>>,sensibleInternalEnergy>>>
heRhoThermo<multiComponentMixture<const<hConst<perfectGas<specie>>,sensibleEnthalpy>>>
heRhoThermo<multiComponentMixture<const<hConst<perfectGas<specie>>,sensibleInternalEnergy>>>
heRhoThermo<multiComponentMixture<const<hConst<rPolynomial<specie>>,sensibleEnthalpy>>>
heRhoThermo<multiComponentMixture<const<hConst<rPolynomial<specie>>,sensibleInternalEnergy>>>
heRhoThermo<multiComponentMixture<const<hConst<rhoConst<specie>>,sensibleEnthalpy>>>
heRhoThermo<multiComponentMixture<const<hConst<rhoConst<specie>>,sensibleInternalEnergy>>>
heRhoThermo<multiComponentMixture<const<janaf<perfectGas<specie>>,sensibleEnthalpy>>>
heRhoThermo<multiComponentMixture<const<janaf<perfectGas<specie>>,sensibleInternalEnergy>>>
heRhoThermo<multiComponentMixture<sutherland<eConst<perfectGas<specie>>,sensibleInternalEnergy>>>
heRhoThermo<multiComponentMixture<sutherland<hConst<perfectGas<specie>>,sensibleEnthalpy>>>
heRhoThermo<multiComponentMixture<sutherland<hConst<perfectGas<specie>>,sensibleInternalEnergy>>>
heRhoThermo<multiComponentMixture<sutherland<janaf<perfectGas<specie>>,sensibleEnthalpy>>>
heRhoThermo<multiComponentMixture<sutherland<janaf<perfectGas<specie>>,sensibleInternalEnergy>>>
heRhoThermo<pureMixture<const<eConst<Boussinesq<specie>>,sensibleInternalEnergy>>>
heRhoThermo<pureMixture<const<eConst<adiabaticPerfectFluid<specie>>,sensibleInternalEnergy>>>
heRhoThermo<pureMixture<const<eConst<perfectGas<specie>>,sensibleInternalEnergy>>>
heRhoThermo<pureMixture<const<eConst<rPolynomial<specie>>,sensibleInternalEnergy>>>
heRhoThermo<pureMixture<const<eConst<rhoConst<specie>>,sensibleInternalEnergy>>>
heRhoThermo<pureMixture<const<hConst<Boussinesq<specie>>,sensibleEnthalpy>>>
heRhoThermo<pureMixture<const<hConst<Boussinesq<specie>>,sensibleInternalEnergy>>>
heRhoThermo<pureMixture<const<hConst<adiabaticPerfectFluid<specie>>,sensibleEnthalpy>>>
heRhoThermo<pureMixture<const<hConst<adiabaticPerfectFluid<specie>>,sensibleInternalEnergy>>>
heRhoThermo<pureMixture<const<hConst<perfectGas<specie>>,sensibleEnthalpy>>>
heRhoThermo<pureMixture<const<hConst<perfectGas<specie>>,sensibleInternalEnergy>>>
heRhoThermo<pureMixture<const<hConst<rPolynomial<specie>>,sensibleEnthalpy>>>
heRhoThermo<pureMixture<const<hConst<rPolynomial<specie>>,sensibleInternalEnergy>>>
heRhoThermo<pureMixture<const<hConst<rhoConst<specie>>,sensibleEnthalpy>>>
heRhoThermo<pureMixture<const<hConst<rhoConst<specie>>,sensibleInternalEnergy>>>
heRhoThermo<pureMixture<const<janaf<Boussinesq<specie>>,sensibleEnthalpy>>>
heRhoThermo<pureMixture<const<janaf<Boussinesq<specie>>,sensibleInternalEnergy>>>
heRhoThermo<pureMixture<const<janaf<perfectGas<specie>>,sensibleEnthalpy>>>
heRhoThermo<pureMixture<const<janaf<perfectGas<specie>>,sensibleInternalEnergy>>>
heRhoThermo<pureMixture<liquid,sensibleEnthalpy>>
heRhoThermo<pureMixture<liquid,sensibleInternalEnergy>>
heRhoThermo<pureMixture<sutherland<eConst<Boussinesq<specie>>,sensibleInternalEnergy>>>
heRhoThermo<pureMixture<sutherland<eConst<perfectGas<specie>>,sensibleInternalEnergy>>>
heRhoThermo<pureMixture<sutherland<hConst<Boussinesq<specie>>,sensibleEnthalpy>>>
heRhoThermo<pureMixture<sutherland<hConst<Boussinesq<specie>>,sensibleInternalEnergy>>>
heRhoThermo<pureMixture<sutherland<hConst<perfectGas<specie>>,sensibleEnthalpy>>>
heRhoThermo<pureMixture<sutherland<hConst<perfectGas<specie>>,sensibleInternalEnergy>>>
heRhoThermo<pureMixture<sutherland<janaf<Boussinesq<specie>>,sensibleEnthalpy>>>
heRhoThermo<pureMixture<sutherland<janaf<Boussinesq<specie>>,sensibleInternalEnergy>>>
heRhoThermo<pureMixture<sutherland<janaf<perfectGas<specie>>,sensibleEnthalpy>>>
heRhoThermo<pureMixture<sutherland<janaf<perfectGas<specie>>,sensibleInternalEnergy>>>
heRhoThermo<pureMixture<tabulated<eIcoTabulated<icoTabulated<specie>>,sensibleInternalEnergy>>>
heRhoThermo<pureMixture<tabulated<eTabulated<rhoTabulated<specie>>,sensibleInternalEnergy>>>
heRhoThermo<pureMixture<tabulated<hIcoTabulated<icoTabulated<specie>>,sensibleEnthalpy>>>
heRhoThermo<pureMixture<tabulated<hTabulated<rhoTabulated<specie>>,sensibleEnthalpy>>>
heRhoThermo<valueMultiComponentMixture<const<eConst<adiabaticPerfectFluid<specie>>,sensibleInternalEnergy>>>
heRhoThermo<valueMultiComponentMixture<const<eConst<rPolynomial<specie>>,sensibleInternalEnergy>>>
heRhoThermo<valueMultiComponentMixture<const<eConst<rhoConst<specie>>,sensibleInternalEnergy>>>
heRhoThermo<valueMultiComponentMixture<const<hConst<adiabaticPerfectFluid<specie>>,sensibleEnthalpy>>>
heRhoThermo<valueMultiComponentMixture<const<hConst<adiabaticPerfectFluid<specie>>,sensibleInternalEnergy>>>
heRhoThermo<valueMultiComponentMixture<const<hConst<rPolynomial<specie>>,sensibleEnthalpy>>>
heRhoThermo<valueMultiComponentMixture<const<hConst<rPolynomial<specie>>,sensibleInternalEnergy>>>
heRhoThermo<valueMultiComponentMixture<const<hConst<rhoConst<specie>>,sensibleEnthalpy>>>
heRhoThermo<valueMultiComponentMixture<const<hConst<rhoConst<specie>>,sensibleInternalEnergy>>>
heRhoThermo<valueMultiComponentMixture<tabulated<eIcoTabulated<icoTabulated<specie>>,sensibleInternalEnergy>>>
heRhoThermo<valueMultiComponentMixture<tabulated<eTabulated<rhoTabulated<specie>>,sensibleInternalEnergy>>>
heRhoThermo<valueMultiComponentMixture<tabulated<hIcoTabulated<icoTabulated<specie>>,sensibleEnthalpy>>>
heRhoThermo<valueMultiComponentMixture<tabulated<hTabulated<rhoTabulated<specie>>,sensibleEnthalpy>>>
heheuPsiThermo<egrMixture<const<hConst<perfectGas<specie>>,absoluteEnthalpy>>>
heheuPsiThermo<egrMixture<const<janaf<perfectGas<specie>>,absoluteEnthalpy>>>
heheuPsiThermo<egrMixture<sutherland<hConst<perfectGas<specie>>,absoluteEnthalpy>>>
heheuPsiThermo<egrMixture<sutherland<janaf<perfectGas<specie>>,absoluteEnthalpy>>>
heheuPsiThermo<homogeneousMixture<const<hConst<perfectGas<specie>>,absoluteEnthalpy>>>
heheuPsiThermo<homogeneousMixture<const<janaf<perfectGas<specie>>,absoluteEnthalpy>>>
heheuPsiThermo<homogeneousMixture<sutherland<hConst<perfectGas<specie>>,absoluteEnthalpy>>>
heheuPsiThermo<homogeneousMixture<sutherland<janaf<perfectGas<specie>>,absoluteEnthalpy>>>
heheuPsiThermo<inhomogeneousMixture<const<hConst<perfectGas<specie>>,absoluteEnthalpy>>>
heheuPsiThermo<inhomogeneousMixture<const<janaf<perfectGas<specie>>,absoluteEnthalpy>>>
heheuPsiThermo<inhomogeneousMixture<sutherland<hConst<perfectGas<specie>>,absoluteEnthalpy>>>
heheuPsiThermo<inhomogeneousMixture<sutherland<janaf<perfectGas<specie>>,absoluteEnthalpy>>>
heheuPsiThermo<veryInhomogeneousMixture<const<hConst<perfectGas<specie>>,absoluteEnthalpy>>>
heheuPsiThermo<veryInhomogeneousMixture<const<janaf<perfectGas<specie>>,absoluteEnthalpy>>>
heheuPsiThermo<veryInhomogeneousMixture<sutherland<hConst<perfectGas<specie>>,absoluteEnthalpy>>>
heheuPsiThermo<veryInhomogeneousMixture<sutherland<janaf<perfectGas<specie>>,absoluteEnthalpy>>>
)



    From function static typename Table::iterator Foam::basicThermo::lookupCstrIter(const Foam::dictionary&, Table*) [with Thermo = Foam::fluidThermo; Table = Foam::HashTable<Foam::autoPtr<Foam::fluidThermo> (*)(const Foam::fvMesh&, const Foam::word&), Foam::word, Foam::string::hash>; typename Table::iterator = Foam::HashTable<Foam::autoPtr<Foam::fluidThermo> (*)(const Foam::fvMesh&, const Foam::word&), Foam::word, Foam::string::hash>::iterator]
    in file lnInclude/basicThermoTemplates.C at line 224.

FOAM exiting

