/*---------------------------------------------------------------------------*\
  =========                 |
  \\      /  F ield         | OpenFOAM: The Open Source CFD Toolbox
   \\    /   O peration     | Website:  https://openfoam.org
    \\  /    A nd           | Version:  10
     \\/     M anipulation  |
\*---------------------------------------------------------------------------*/
Build  : 10
Exec   : blockMesh
Date   : Mar 02 2026
Time   : 11:24:04
Host   : "alphagpu04"
PID    : 3426423
I/O    : uncollated
Case   : /mnt/home/DDN_Copy/rpi/pxu10/standard/qwen-benchmark/runs/pitzDaily/1
nProcs : 1
sigFpe : Enabling floating point exception trapping (FOAM_SIGFPE).
fileModificationChecking : Monitoring run-time modified files using timeStampMaster (fileModificationSkew 10)
allowSystemOperations : Allowing user-supplied system call operations

// * * * * * * * * * * * * * * * * * * * * * * * * * * * * * * * * * * * * * //
Create time

Reading "blockMeshDict"

Creating block mesh from
    "system/blockMeshDict"
Creating block edges
No non-planar block faces defined
Creating topology blocks


--> FOAM FATAL IO ERROR: 
Expected a ')' while reading VectorSpace<Form, Cmpt, Ncmpts>, found on line 26 the label 1

file: /mnt/home/DDN_Copy/rpi/pxu10/standard/qwen-benchmark/runs/pitzDaily/1/system/blockMeshDict/blocks at line 26.

    From function Foam::Istream& Foam::Istream::readEnd(const char*)
    in file db/IOstreams/IOstreams/Istream.C at line 109.

FOAM exiting

