/*---------------------------------------------------------------------------*\
  =========                 |
  \\      /  F ield         | OpenFOAM: The Open Source CFD Toolbox
   \\    /   O peration     | Website:  https://openfoam.org
    \\  /    A nd           | Version:  10
     \\/     M anipulation  |
\*---------------------------------------------------------------------------*/
Build  : 10
Exec   : blockMesh
Date   : Mar 02 2026
Time   : 01:03:18
Host   : "alphagpu17"
PID    : 3932224
I/O    : uncollated
Case   : /mnt/home/DDN_Copy/rpi/pxu10/standard/qwen-benchmark/runs/forwardStep/1
nProcs : 1
sigFpe : Enabling floating point exception trapping (FOAM_SIGFPE).
fileModificationChecking : Monitoring run-time modified files using timeStampMaster (fileModificationSkew 10)
allowSystemOperations : Allowing user-supplied system call operations

// * * * * * * * * * * * * * * * * * * * * * * * * * * * * * * * * * * * * * //
Create time

Reading "blockMeshDict"

Creating block mesh from
    "system/blockMeshDict"
Creating block edges
No non-planar block faces defined
Creating topology blocks
Creating topology patches

Creating block mesh topology


--> FOAM FATAL ERROR: 
face 0 in patch 0 does not have neighbour cell face: 4(0 3 4 1)

    From function Foam::labelList Foam::polyMesh::facePatchFaceCells(const Foam::faceList&, const Foam::labelListList&, const Foam::faceListList&, Foam::label) const
    in file meshes/polyMesh/polyMeshFromShapeMesh.C at line 118.

FOAM aborting

#0  Foam::error::printStack(Foam::Ostream&) at ??:?
#1  Foam::error::abort() at ??:?
#2  Foam::polyMesh::facePatchFaceCells(Foam::List<Foam::face> const&, Foam::List<Foam::List<int> > const&, Foam::List<Foam::List<Foam::face> > const&, int) const at ??:?
#3  Foam::polyMesh::setTopology(Foam::List<Foam::cellShape> const&, Foam::List<Foam::List<Foam::face> > const&, Foam::List<Foam::word> const&, Foam::List<int>&, Foam::List<int>&, int&, int&, Foam::List<Foam::cell>&) at ??:?
#4  Foam::polyMesh::polyMesh(Foam::IOobject const&, Foam::Field<Foam::Vector<double> >&&, Foam::List<Foam::cellShape> const&, Foam::List<Foam::List<Foam::face> > const&, Foam::List<Foam::word> const&, Foam::PtrList<Foam::dictionary> const&, Foam::word const&, Foam::word const&, bool) at ??:?
#5  Foam::blockMesh::createTopology(Foam::IOdictionary const&, Foam::word const&) at ??:?
#6  Foam::blockMesh::blockMesh(Foam::IOdictionary const&, Foam::word const&) at ??:?
#7  ? at ??:?
#8  ? in "/lib64/libc.so.6"
#9  __libc_start_main in "/lib64/libc.so.6"
#10  ? at ??:?
