/*---------------------------------------------------------------------------*\
  =========                 |
  \\      /  F ield         | OpenFOAM: The Open Source CFD Toolbox
   \\    /   O peration     | Website:  https://openfoam.org
    \\  /    A nd           | Version:  10
     \\/     M anipulation  |
\*---------------------------------------------------------------------------*/
Build  : 10
Exec   : pimpleFoam
Date   : Mar 02 2026
Time   : 11:29:09
Host   : "alphagpu04"
PID    : 3437405
I/O    : uncollated
Case   : /mnt/home/DDN_Copy/rpi/pxu10/standard/qwen-benchmark/runs/pitzDaily/2
nProcs : 1
sigFpe : Enabling floating point exception trapping (FOAM_SIGFPE).
fileModificationChecking : Monitoring run-time modified files using timeStampMaster (fileModificationSkew 10)
allowSystemOperations : Allowing user-supplied system call operations

// * * * * * * * * * * * * * * * * * * * * * * * * * * * * * * * * * * * * * //
Create time

Create mesh for time = 0


PIMPLE: No convergence criteria found


PIMPLE: Operating solver in steady-state mode with 1 outer corrector
PIMPLE: Operating solver in SIMPLE mode


Reading field p

Reading field U

Reading/calculating face flux field phi

Selecting viscosity model constant
Selecting turbulence model type RAS
Selecting RAS turbulence model kOmegaSST
Selecting patchDistMethod Poisson
smoothSolver:  Solving for yPsi, Initial residual = 1, Final residual = 0.0981574, No Iterations 22
bounding k, min: 0 max: 0.01 average: 0.01
No MRF models present

No fvModels present
No fvConstraints present


--> FOAM FATAL ERROR: 
Arguments of min have different dimensions
     dimensions : [0 -2 2 0 0 0 0] and [0 0 0 0 0 0 0]


    From function Foam::dimensionSet Foam::min(const dimensionSet&, const dimensionSet&)
    in file dimensionSet/dimensionSet.C at line 245.

FOAM aborting

#0  Foam::error::printStack(Foam::Ostream&) at ??:?
#1  Foam::error::abort() at ??:?
#2  Foam::min(Foam::dimensionSet const&, Foam::dimensionSet const&) at ??:?
#3  Foam::tmp<Foam::GeometricField<double, Foam::fvPatchField, Foam::volMesh> > Foam::min<double, Foam::fvPatchField, Foam::volMesh>(Foam::tmp<Foam::GeometricField<double, Foam::fvPatchField, Foam::volMesh> > const&, Foam::dimensioned<double> const&) at ??:?
#4  Foam::kOmegaSST<Foam::eddyViscosity<Foam::RASModel<Foam::incompressibleMomentumTransportModel> >, Foam::incompressibleMomentumTransportModel>::F2() const at ??:?
#5  Foam::kOmegaSST<Foam::eddyViscosity<Foam::RASModel<Foam::incompressibleMomentumTransportModel> >, Foam::incompressibleMomentumTransportModel>::F23() const at ??:?
#6  Foam::kOmegaSST<Foam::eddyViscosity<Foam::RASModel<Foam::incompressibleMomentumTransportModel> >, Foam::incompressibleMomentumTransportModel>::correctNut() at ??:?
#7  ? at ??:?
#8  ? in "/lib64/libc.so.6"
#9  __libc_start_main in "/lib64/libc.so.6"
#10  ? at ??:?
