/*---------------------------------------------------------------------------*\
  =========                 |
  \\      /  F ield         | OpenFOAM: The Open Source CFD Toolbox
   \\    /   O peration     | Website:  https://openfoam.org
    \\  /    A nd           | Version:  10
     \\/     M anipulation  |
\*---------------------------------------------------------------------------*/
Build  : 10
Exec   : blockMesh
Date   : Apr 18 2026
Time   : 23:59:58
Host   : "alphagpu11"
PID    : 2775027
I/O    : uncollated
Case   : /mnt/home/DDN_Copy/rpi/pxu10/criteria/qwen3.5-35b-benchmark/runs/Cylinder/2
nProcs : 1
sigFpe : Enabling floating point exception trapping (FOAM_SIGFPE).
fileModificationChecking : Monitoring run-time modified files using timeStampMaster (fileModificationSkew 10)
allowSystemOperations : Allowing user-supplied system call operations

// * * * * * * * * * * * * * * * * * * * * * * * * * * * * * * * * * * * * * //
Create time

Reading "blockMeshDict"

Creating block mesh from
    "system/blockMeshDict"
Creating block edges


--> FOAM FATAL ERROR: 
Arc point (0 0 0) lies on the line of edge (4 5)

    From function void Foam::blockEdges::arcEdge::calc(const Foam::point&)
    in file blockEdges/arcEdge/arcEdge.C at line 51.

FOAM aborting

#0  Foam::error::printStack(Foam::Ostream&) at ??:?
#1  Foam::error::abort() at ??:?
#2  Foam::blockEdges::arcEdge::calc(Foam::Vector<double> const&) at ??:?
#3  Foam::blockEdges::arcEdge::arcEdge(Foam::dictionary const&, int, Foam::searchableSurfaces const&, Foam::Field<Foam::Vector<double> > const&, Foam::Istream&) at ??:?
#4  Foam::blockEdge::addIstreamConstructorToTable<Foam::blockEdges::arcEdge>::New(Foam::dictionary const&, int, Foam::searchableSurfaces const&, Foam::Field<Foam::Vector<double> > const&, Foam::Istream&) at ??:?
#5  Foam::blockEdge::New(Foam::dictionary const&, int, Foam::searchableSurfaces const&, Foam::Field<Foam::Vector<double> > const&, Foam::Istream&) at ??:?
#6  void Foam::PtrList<Foam::blockEdge>::read<Foam::blockEdge::iNew>(Foam::Istream&, Foam::blockEdge::iNew const&) at ??:?
#7  Foam::blockMesh::createTopology(Foam::IOdictionary const&, Foam::word const&) at ??:?
#8  Foam::blockMesh::blockMesh(Foam::IOdictionary const&, Foam::word const&) at ??:?
#9  ? at ??:?
#10  ? in "/lib64/libc.so.6"
#11  __libc_start_main in "/lib64/libc.so.6"
#12  ? at ??:?
