/*---------------------------------------------------------------------------*\
  =========                 |
  \\      /  F ield         | OpenFOAM: The Open Source CFD Toolbox
   \\    /   O peration     | Website:  https://openfoam.org
    \\  /    A nd           | Version:  10
     \\/     M anipulation  |
\*---------------------------------------------------------------------------*/
Build  : 10
Exec   : blockMesh
Date   : Apr 19 2026
Time   : 01:17:34
Host   : "alphagpu11"
PID    : 2822583
I/O    : uncollated
Case   : /mnt/home/DDN_Copy/rpi/pxu10/criteria/qwen3.5-35b-benchmark/runs/obliqueShock/3
nProcs : 1
sigFpe : Enabling floating point exception trapping (FOAM_SIGFPE).
fileModificationChecking : Monitoring run-time modified files using timeStampMaster (fileModificationSkew 10)
allowSystemOperations : Allowing user-supplied system call operations

// * * * * * * * * * * * * * * * * * * * * * * * * * * * * * * * * * * * * * //
Create time

Deleting polyMesh directory
    "/mnt/home/DDN_Copy/rpi/pxu10/criteria/qwen3.5-35b-benchmark/runs/obliqueShock/3/constant/polyMesh"
Reading "blockMeshDict"

Creating block mesh from
    "system/blockMeshDict"
Creating block edges
No non-planar block faces defined
Creating topology blocks
Creating topology patches

Creating block mesh topology

Check topology

	Basic statistics
		Number of internal faces : 0
		Number of boundary faces : 6
		Number of defined boundary faces : 6
		Number of undefined boundary faces : 0
	Checking patch -> block consistency

Creating block offsets
Creating merge list .

Creating polyMesh from blockMesh
Creating patches
Creating cells
Creating points with scale 1
    Block 0 cell size :
        i : 0.041 .. 0.041
        j : 0.05 .. 0.05
        k : 0.1

Writing polyMesh
----------------
Mesh Information
----------------
  boundingBox: (0 0 0) (4.1 1 0.1)
  nPoints: 4242
  nCells: 2000
  nFaces: 8120
  nInternalFaces: 3880
----------------
Patches
----------------
  patch 0 (start: 3880 size: 20) name: inlet
  patch 1 (start: 3900 size: 20) name: outlet
  patch 2 (start: 3920 size: 100) name: top
  patch 3 (start: 4020 size: 100) name: bottom
  patch 4 (start: 4120 size: 4000) name: frontAndBack

End

