/*---------------------------------------------------------------------------*\
  =========                 |
  \\      /  F ield         | OpenFOAM: The Open Source CFD Toolbox
   \\    /   O peration     | Website:  https://openfoam.org
    \\  /    A nd           | Version:  10
     \\/     M anipulation  |
\*---------------------------------------------------------------------------*/
Build  : 10
Exec   : blockMesh
Date   : Mar 02 2026
Time   : 11:05:17
Host   : "alphagpu04"
PID    : 3392422
I/O    : uncollated
Case   : /mnt/home/DDN_Copy/rpi/pxu10/standard/qwen-benchmark/runs/counterFlowFlame2D/1
nProcs : 1
sigFpe : Enabling floating point exception trapping (FOAM_SIGFPE).
fileModificationChecking : Monitoring run-time modified files using timeStampMaster (fileModificationSkew 10)
allowSystemOperations : Allowing user-supplied system call operations

// * * * * * * * * * * * * * * * * * * * * * * * * * * * * * * * * * * * * * //
Create time

Reading "blockMeshDict"

Creating block mesh from
    "system/blockMeshDict"
Creating block edges
No non-planar block faces defined
Creating topology blocks


--> FOAM FATAL IO ERROR: 
Block hex (0 1 2 3 4 5 6 7) (50 50 1) simpleGrading (1(1) 1(1) 1(1)) has inward-pointing faces
    4(0 3 2 1) 4(4 5 6 7) 

file: /mnt/home/DDN_Copy/rpi/pxu10/standard/qwen-benchmark/runs/counterFlowFlame2D/1/system/blockMeshDict/blocks at line 26.

    From function void Foam::blockDescriptor::check(const Foam::Istream&)
    in file blockDescriptor/blockDescriptor.C at line 106.

FOAM exiting

