/*---------------------------------------------------------------------------*\
  =========                 |
  \\      /  F ield         | OpenFOAM: The Open Source CFD Toolbox
   \\    /   O peration     | Website:  https://openfoam.org
    \\  /    A nd           | Version:  10
     \\/     M anipulation  |
\*---------------------------------------------------------------------------*/
Build  : 10
Exec   : pisoFoam
Date   : Apr 20 2026
Time   : 03:15:17
Host   : "alphagpu11"
PID    : 3526280
I/O    : uncollated
Case   : /mnt/home/DDN_Copy/rpi/pxu10/criteria/qwen3.5-27b-claude-4.6-opus-benchmark/runs/Cavity/2
nProcs : 1
sigFpe : Enabling floating point exception trapping (FOAM_SIGFPE).
fileModificationChecking : Monitoring run-time modified files using timeStampMaster (fileModificationSkew 10)
allowSystemOperations : Allowing user-supplied system call operations

// * * * * * * * * * * * * * * * * * * * * * * * * * * * * * * * * * * * * * //
Create time



--> FOAM FATAL IO ERROR: 
writeInterval < 1 for writeControl timeStep

file: /mnt/home/DDN_Copy/rpi/pxu10/criteria/qwen3.5-27b-claude-4.6-opus-benchmark/runs/Cavity/2/system/controlDict at line 10.

    From function virtual void Foam::Time::readDict()
    in file db/Time/TimeIO.C at line 73.

FOAM exiting

