/*---------------------------------------------------------------------------*\
  =========                 |
  \\      /  F ield         | OpenFOAM: The Open Source CFD Toolbox
   \\    /   O peration     | Website:  https://openfoam.org
    \\  /    A nd           | Version:  10
     \\/     M anipulation  |
\*---------------------------------------------------------------------------*/
Build  : 10
Exec   : blockMesh
Date   : Apr 19 2026
Time   : 13:31:56
Host   : "alphagpu11"
PID    : 3131943
I/O    : uncollated
Case   : /mnt/home/DDN_Copy/rpi/pxu10/criteria/qwen3.5-35b-benchmark/runs/forwardStep/3
nProcs : 1
sigFpe : Enabling floating point exception trapping (FOAM_SIGFPE).
fileModificationChecking : Monitoring run-time modified files using timeStampMaster (fileModificationSkew 10)
allowSystemOperations : Allowing user-supplied system call operations

// * * * * * * * * * * * * * * * * * * * * * * * * * * * * * * * * * * * * * //
Create time

Deleting polyMesh directory
    "/mnt/home/DDN_Copy/rpi/pxu10/criteria/qwen3.5-35b-benchmark/runs/forwardStep/3/constant/polyMesh"
Reading "blockMeshDict"

Creating block mesh from
    "system/blockMeshDict"
No non-linear block edges defined
No non-planar block faces defined
Creating topology blocks
Creating topology patches

Creating block mesh topology
--> FOAM Warning : 
    From function void Foam::blockMesh::defaultPatchError(const Foam::word&, const Foam::dictionary&) const
    in file blockMesh/blockMeshTopology.C at line 349
    Reading "/mnt/home/DDN_Copy/rpi/pxu10/criteria/qwen3.5-35b-benchmark/runs/forwardStep/3/system/blockMeshDict" from line 9 to line 98
    The 'defaultPatch' type must be specified for the 'defaultFaces' patch, e.g. for snappyHexMesh

    defaultPatch
    {
        name default; // optional
        type patch;
    }

or for 2D meshes

    defaultPatch
    {
        name frontAndBack; // optional
        type empty;
    }


Check topology

	Basic statistics
		Number of internal faces : 0
		Number of boundary faces : 12
		Number of defined boundary faces : 12
		Number of undefined boundary faces : 0
	Checking patch -> block consistency

Creating block offsets
Creating merge list .

Creating polyMesh from blockMesh
Creating patches
Creating cells
Creating points with scale 1
    Block 0 cell size :
        i : 0.025 .. 0.025
        j : 0.02 .. 0.02
        k : 0.05 .. 0.05
    Block 1 cell size :
        i : 0.025 .. 0.025
        j : 0.08 .. 0.08
        k : 0.05 .. 0.05

Writing polyMesh
----------------
Mesh Information
----------------
  boundingBox: (0 0 0) (2 1 0.5)
  nPoints: 9922
  nCells: 8000
  nFaces: 25800
  nInternalFaces: 22200
----------------
Patches
----------------
  patch 0 (start: 22200 size: 100) name: inlet
  patch 1 (start: 22300 size: 100) name: outlet
  patch 2 (start: 22400 size: 400) name: floor
  patch 3 (start: 22800 size: 800) name: ceiling
  patch 4 (start: 23600 size: 100) name: step
  patch 5 (start: 23700 size: 1600) name: frontAndBack
  patch 6 (start: 25300 size: 500) name: defaultFaces

End

