/*---------------------------------------------------------------------------*\
  =========                 |
  \\      /  F ield         | OpenFOAM: The Open Source CFD Toolbox
   \\    /   O peration     | Website:  https://openfoam.org
    \\  /    A nd           | Version:  10
     \\/     M anipulation  |
\*---------------------------------------------------------------------------*/
Build  : 10
Exec   : blockMesh
Date   : Mar 02 2026
Time   : 02:08:31
Host   : "alphagpu17"
PID    : 4037077
I/O    : uncollated
Case   : /mnt/home/DDN_Copy/rpi/pxu10/standard/qwen-benchmark/runs/squareBend/2
nProcs : 1
sigFpe : Enabling floating point exception trapping (FOAM_SIGFPE).
fileModificationChecking : Monitoring run-time modified files using timeStampMaster (fileModificationSkew 10)
allowSystemOperations : Allowing user-supplied system call operations

// * * * * * * * * * * * * * * * * * * * * * * * * * * * * * * * * * * * * * //
Create time

--> FOAM Warning : 
    From function void* Foam::dlOpen(const fileName&, bool)
    in file POSIX.C at line 1247
    dlopen error : libfvMeshTools.so: cannot open shared object file: No such file or directory
--> FOAM Warning : 
    From function bool Foam::dlLibraryTable::open(const Foam::fileName&, bool)
    in file db/dynamicLibrary/dlLibraryTable/dlLibraryTable.C at line 106
    could not load "libfvMeshTools.so"
Reading "blockMeshDict"

Creating block mesh from
    "system/blockMeshDict"
Creating block edges
No non-planar block faces defined
Creating topology blocks


--> FOAM FATAL IO ERROR: 
Block hex (0 1 2 3 4 5 4 5) (20 20 20) simpleGrading (1(1) 1(1) 1(1)) has inward-pointing faces
    4(0 1 5 4) 

file: /mnt/home/DDN_Copy/rpi/pxu10/standard/qwen-benchmark/runs/squareBend/2/system/blockMeshDict/blocks at line 24.

    From function void Foam::blockDescriptor::check(const Foam::Istream&)
    in file blockDescriptor/blockDescriptor.C at line 106.

FOAM exiting

