/*---------------------------------------------------------------------------*\
  =========                 |
  \\      /  F ield         | OpenFOAM: The Open Source CFD Toolbox
   \\    /   O peration     | Website:  https://openfoam.org
    \\  /    A nd           | Version:  10
     \\/     M anipulation  |
\*---------------------------------------------------------------------------*/
Build  : 10
Exec   : setFields
Date   : Apr 19 2026
Time   : 03:00:52
Host   : "alphagpu11"
PID    : 2895290
I/O    : uncollated
Case   : /mnt/home/DDN_Copy/rpi/pxu10/criteria/qwen3.5-35b-benchmark/runs/damBreakWithObstacle/1
nProcs : 1
sigFpe : Enabling floating point exception trapping (FOAM_SIGFPE).
fileModificationChecking : Monitoring run-time modified files using timeStampMaster (fileModificationSkew 10)
allowSystemOperations : Allowing user-supplied system call operations

// * * * * * * * * * * * * * * * * * * * * * * * * * * * * * * * * * * * * * //
Create time

Create mesh for time = 0

Reading "setFieldsDict"

Setting field default values
--> FOAM Warning : 
    From function bool setCellFieldType(const Foam::word&, const Foam::fvMesh&, const Foam::labelList&, Foam::Istream&) [with Type = double; Foam::labelList = Foam::List<int>]
    in file setFields.C at line 122
    Field alpha1 not found

Setting field region values
    Adding cells with center within boxes 1((0 0 0) (1 0.5 1))
--> FOAM Warning : 
    From function bool setCellFieldType(const Foam::word&, const Foam::fvMesh&, const Foam::labelList&, Foam::Istream&) [with Type = double; Foam::labelList = Foam::List<int>]
    in file setFields.C at line 122
    Field alpha1 not found
    Adding cells with center within boxes 1((0.4 0.4 0) (0.6 0.6 0.2))
--> FOAM Warning : 
    From function bool setCellFieldType(const Foam::word&, const Foam::fvMesh&, const Foam::labelList&, Foam::Istream&) [with Type = double; Foam::labelList = Foam::List<int>]
    in file setFields.C at line 122
    Field alpha1 not found

End

