/*---------------------------------------------------------------------------*\
  =========                 |
  \\      /  F ield         | OpenFOAM: The Open Source CFD Toolbox
   \\    /   O peration     | Website:  https://openfoam.org
    \\  /    A nd           | Version:  10
     \\/     M anipulation  |
\*---------------------------------------------------------------------------*/
Build  : 10
Exec   : setFields
Date   : Mar 02 2026
Time   : 02:56:15
Host   : "alphagpu17"
PID    : 4106385
I/O    : uncollated
Case   : /mnt/home/DDN_Copy/rpi/pxu10/standard/qwen-benchmark/runs/shallowWaterWithSquareBump/1
nProcs : 1
sigFpe : Enabling floating point exception trapping (FOAM_SIGFPE).
fileModificationChecking : Monitoring run-time modified files using timeStampMaster (fileModificationSkew 10)
allowSystemOperations : Allowing user-supplied system call operations

// * * * * * * * * * * * * * * * * * * * * * * * * * * * * * * * * * * * * * //
Create time

Create mesh for time = 0

Reading "setFieldsDict"

Setting field default values
--> FOAM Warning : 
    From function Foam::autoPtr<setCellField> setCellField::iNew::operator()(Foam::Istream&) const
    in file setFields.C at line 179
    field type volScalarField not currently supported
--> FOAM Warning : 
    From function Foam::autoPtr<setCellField> setCellField::iNew::operator()(Foam::Istream&) const
    in file setFields.C at line 179
    field type h not currently supported
--> FOAM Warning : 
    From function Foam::autoPtr<setCellField> setCellField::iNew::operator()(Foam::Istream&) const
    in file setFields.C at line 179
    field type 0.01 not currently supported


--> FOAM FATAL IO ERROR: 
wrong token type - expected word, found on line 12 the punctuation token ';'

file: /mnt/home/DDN_Copy/rpi/pxu10/standard/qwen-benchmark/runs/shallowWaterWithSquareBump/1/system/setFieldsDict/defaultFieldValues at line 12.

    From function Foam::Istream& Foam::operator>>(Istream&, word&)
    in file primitives/strings/word/wordIO.C at line 74.

FOAM exiting

