/*---------------------------------------------------------------------------*\
  =========                 |
  \\      /  F ield         | OpenFOAM: The Open Source CFD Toolbox
   \\    /   O peration     | Website:  https://openfoam.org
    \\  /    A nd           | Version:  10
     \\/     M anipulation  |
\*---------------------------------------------------------------------------*/
Build  : 10
Exec   : shallowWaterFoam
Date   : Mar 02 2026
Time   : 02:56:16
Host   : "alphagpu17"
PID    : 4106387
I/O    : uncollated
Case   : /mnt/home/DDN_Copy/rpi/pxu10/standard/qwen-benchmark/runs/shallowWaterWithSquareBump/1
nProcs : 1
sigFpe : Enabling floating point exception trapping (FOAM_SIGFPE).
fileModificationChecking : Monitoring run-time modified files using timeStampMaster (fileModificationSkew 10)
allowSystemOperations : Allowing user-supplied system call operations

// * * * * * * * * * * * * * * * * * * * * * * * * * * * * * * * * * * * * * //
Create time

Create mesh for time = 0


PIMPLE: No convergence criteria found


PIMPLE: Operating solver in transient mode with 1 outer corrector
PIMPLE: Operating solver in PISO mode



Reading gravitationalProperties


--> FOAM FATAL IO ERROR: 
expected a [ in dimensionSet
in stream ITstream : /mnt/home/DDN_Copy/rpi/pxu10/standard/qwen-benchmark/runs/shallowWaterWithSquareBump/1/constant/gravitationalProperties/g, line 10, IOstream: Version 2.0, format ASCII, line 10, OPENED, EOF


file: /mnt/home/DDN_Copy/rpi/pxu10/standard/qwen-benchmark/runs/shallowWaterWithSquareBump/1/constant/gravitationalProperties/g at line 10.

    From function Foam::Istream& Foam::dimensionSet::read(Foam::Istream&, Foam::scalar&, const Foam::HashTable<Foam::dimensioned<double> >&)
    in file dimensionSet/dimensionSetIO.C at line 416.

FOAM exiting

