/*---------------------------------------------------------------------------*\
  =========                 |
  \\      /  F ield         | OpenFOAM: The Open Source CFD Toolbox
   \\    /   O peration     | Website:  https://openfoam.org
    \\  /    A nd           | Version:  10
     \\/     M anipulation  |
\*---------------------------------------------------------------------------*/
Build  : 10
Exec   : pisoFoam
Date   : Apr 18 2026
Time   : 23:05:02
Host   : "alphagpu11"
PID    : 2734354
I/O    : uncollated
Case   : /mnt/home/DDN_Copy/rpi/pxu10/criteria/qwen3.5-35b-benchmark/runs/Cavity/1
nProcs : 1
sigFpe : Enabling floating point exception trapping (FOAM_SIGFPE).
fileModificationChecking : Monitoring run-time modified files using timeStampMaster (fileModificationSkew 10)
allowSystemOperations : Allowing user-supplied system call operations

// * * * * * * * * * * * * * * * * * * * * * * * * * * * * * * * * * * * * * //
Create time

Create mesh for time = 0

Reading field p

Reading field U

Reading/calculating face flux field phi

Selecting viscosity model Newtonian
Selecting turbulence model type incompressible


--> FOAM FATAL ERROR: 
Unknown momentumTransport type incompressible

Valid momentumTransport types:

3
(
LES
RAS
laminar
)


    From function static Foam::autoPtr<T> Foam::momentumTransportModel::New(const typename MomentumTransportModel::alphaField&, const typename MomentumTransportModel::rhoField&, const Foam::volVectorField&, const Foam::surfaceScalarField&, const Foam::surfaceScalarField&, const Foam::viscosity&) [with MomentumTransportModel = Foam::incompressibleMomentumTransportModel; typename MomentumTransportModel::alphaField = Foam::geometricOneField; typename MomentumTransportModel::rhoField = Foam::geometricOneField; Foam::volVectorField = Foam::GeometricField<Foam::Vector<double>, Foam::fvPatchField, Foam::volMesh>; Foam::surfaceScalarField = Foam::GeometricField<double, Foam::fvsPatchField, Foam::surfaceMesh>]
    in file ../momentumTransportModels/lnInclude/momentumTransportModelTemplates.C at line 65.

FOAM exiting

