/*---------------------------------------------------------------------------*\
  =========                 |
  \\      /  F ield         | OpenFOAM: The Open Source CFD Toolbox
   \\    /   O peration     | Website:  https://openfoam.org
    \\  /    A nd           | Version:  10
     \\/     M anipulation  |
\*---------------------------------------------------------------------------*/
Build  : 10
Exec   : rhoCentralFoam
Date   : Mar 02 2026
Time   : 01:06:45
Host   : "alphagpu17"
PID    : 3942399
I/O    : uncollated
Case   : /mnt/home/DDN_Copy/rpi/pxu10/standard/qwen-benchmark/runs/forwardStep/2
nProcs : 1
sigFpe : Enabling floating point exception trapping (FOAM_SIGFPE).
fileModificationChecking : Monitoring run-time modified files using timeStampMaster (fileModificationSkew 10)
allowSystemOperations : Allowing user-supplied system call operations

// * * * * * * * * * * * * * * * * * * * * * * * * * * * * * * * * * * * * * //
Create time

Create mesh for time = 0

Reading thermophysical properties

Selecting thermodynamics package 
{
    type            hePsiThermo;
    molecule        air;
    energy          sensibleInternalEnergy;
    specie
    {
        nMoles          1;
        molWeight       28.97;
    }
}



--> FOAM FATAL IO ERROR: 
Attempt to return dictionary entry as a primitive

file: /mnt/home/DDN_Copy/rpi/pxu10/standard/qwen-benchmark/runs/forwardStep/2/constant/physicalProperties/thermoType/specie from line 16 to line 17.

    From function virtual Foam::ITstream& Foam::dictionaryEntry::stream() const
    in file db/dictionary/dictionaryEntry/dictionaryEntry.C at line 83.

FOAM aborting

#0  Foam::error::printStack(Foam::Ostream&) at ??:?
#1  Foam::IOerror::abort() at ??:?
#2  Foam::dictionaryEntry::stream() const at ??:?
#3  Foam::HashTable<Foam::autoPtr<Foam::psiThermo> (*)(Foam::fvMesh const&, Foam::word const&), Foam::word, Foam::string::hash>::iterator Foam::basicThermo::lookupCstrIter<Foam::psiThermo, Foam::HashTable<Foam::autoPtr<Foam::psiThermo> (*)(Foam::fvMesh const&, Foam::word const&), Foam::word, Foam::string::hash> >(Foam::dictionary const&, Foam::HashTable<Foam::autoPtr<Foam::psiThermo> (*)(Foam::fvMesh const&, Foam::word const&), Foam::word, Foam::string::hash>*) at ??:?
#4  Foam::autoPtr<Foam::psiThermo> Foam::basicThermo::New<Foam::psiThermo>(Foam::fvMesh const&, Foam::word const&) at ??:?
#5  Foam::psiThermo::New(Foam::fvMesh const&, Foam::word const&) at ??:?
#6  ? at ??:?
#7  ? in "/lib64/libc.so.6"
#8  __libc_start_main in "/lib64/libc.so.6"
#9  ? at ??:?
