/*---------------------------------------------------------------------------*\
  =========                 |
  \\      /  F ield         | OpenFOAM: The Open Source CFD Toolbox
   \\    /   O peration     | Website:  https://openfoam.org
    \\  /    A nd           | Version:  10
     \\/     M anipulation  |
\*---------------------------------------------------------------------------*/
Build  : 10
Exec   : blockMesh
Date   : Mar 02 2026
Time   : 01:06:45
Host   : "alphagpu17"
PID    : 3942397
I/O    : uncollated
Case   : /mnt/home/DDN_Copy/rpi/pxu10/standard/qwen-benchmark/runs/forwardStep/2
nProcs : 1
sigFpe : Enabling floating point exception trapping (FOAM_SIGFPE).
fileModificationChecking : Monitoring run-time modified files using timeStampMaster (fileModificationSkew 10)
allowSystemOperations : Allowing user-supplied system call operations

// * * * * * * * * * * * * * * * * * * * * * * * * * * * * * * * * * * * * * //
Create time

Deleting polyMesh directory
    "/mnt/home/DDN_Copy/rpi/pxu10/standard/qwen-benchmark/runs/forwardStep/2/constant/polyMesh"
Reading "blockMeshDict"

Creating block mesh from
    "system/blockMeshDict"
Creating block edges
No non-planar block faces defined
Creating topology blocks
Creating topology patches

Creating block mesh topology
--> FOAM Warning : 
    From function void Foam::blockMesh::defaultPatchError(const Foam::word&, const Foam::dictionary&) const
    in file blockMesh/blockMeshTopology.C at line 349
    Reading "/mnt/home/DDN_Copy/rpi/pxu10/standard/qwen-benchmark/runs/forwardStep/2/system/blockMeshDict" from line 10 to line 83
    The 'defaultPatch' type must be specified for the 'defaultFaces' patch, e.g. for snappyHexMesh

    defaultPatch
    {
        name default; // optional
        type patch;
    }

or for 2D meshes

    defaultPatch
    {
        name frontAndBack; // optional
        type empty;
    }


Check topology

	Basic statistics
		Number of internal faces : 0
		Number of boundary faces : 6
		Number of defined boundary faces : 6
		Number of undefined boundary faces : 0
	Checking patch -> block consistency

Creating block offsets
Creating merge list .

Creating polyMesh from blockMesh
Creating patches
Creating cells
Creating points with scale 1
    Block 0 cell size :
        i : 0.1 .. 0.1
        j : 0.1 .. 0.1
        k : 0.1

Writing polyMesh
----------------
Mesh Information
----------------
  boundingBox: (0 0 0) (2 1 0.1)
  nPoints: 462
  nCells: 200
  nFaces: 830
  nInternalFaces: 370
----------------
Patches
----------------
  patch 0 (start: 370 size: 10) name: inlet
  patch 1 (start: 380 size: 10) name: outlet
  patch 2 (start: 390 size: 20) name: obstacle
  patch 3 (start: 410 size: 200) name: top
  patch 4 (start: 610 size: 200) name: bottom
  patch 5 (start: 810 size: 20) name: defaultFaces

End

