/*---------------------------------------------------------------------------*\
  =========                 |
  \\      /  F ield         | OpenFOAM: The Open Source CFD Toolbox
   \\    /   O peration     | Website:  https://openfoam.org
    \\  /    A nd           | Version:  10
     \\/     M anipulation  |
\*---------------------------------------------------------------------------*/
Build  : 10
Exec   : buoyantFoam
Date   : Apr 20 2026
Time   : 01:03:23
Host   : "alphagpu11"
PID    : 3463037
I/O    : uncollated
Case   : /mnt/home/DDN_Copy/rpi/pxu10/criteria/qwen3.5-27b-claude-4.6-opus-benchmark/runs/BernardCells/1
nProcs : 1
sigFpe : Enabling floating point exception trapping (FOAM_SIGFPE).
fileModificationChecking : Monitoring run-time modified files using timeStampMaster (fileModificationSkew 10)
allowSystemOperations : Allowing user-supplied system call operations

// * * * * * * * * * * * * * * * * * * * * * * * * * * * * * * * * * * * * * //
Create time

Create mesh for time = 0


PIMPLE: No convergence criteria found


PIMPLE: Operating solver in transient mode with 1 outer corrector
PIMPLE: Operating solver in PISO mode


Reading thermophysical properties

Selecting thermodynamics package 
{
    type            heRhoThermo;
    mixture         pureMixture;
    transport       const;
    thermo          hConst;
    equationOfState perfectGas;
    specie          specie;
    energy          sensibleEnthalpy;
}

Reading field U

Reading/calculating face flux field phi

Creating turbulence model

Selecting turbulence model type RAS
Selecting RAS turbulence model kEpsilon
RAS
{
    RASModel        kEpsilon;
    turbulence      on;
    printCoeffs     on;
    Cmu             0.09;
    C1              1.44;
    C2              1.92;
    C3              0;
    sigmak          1;
    sigmaEps        1.3;
}

Creating thermophysical transport model

Selecting thermophysical transport type RAS
Selecting default RAS thermophysical transport model unityLewisEddyDiffusivity


--> FOAM FATAL IO ERROR: 
Unknown patchField type alphaWallFunction for patch type wall

Valid patchField types are :

108
(
advective
calculated
codedFixedValue
codedMixed
compressible::alphatJayatillekeWallFunction
compressible::alphatWallFunction
compressible::thermalBaffle1D<eConstSolidThermoPhysics>
compressible::thermalBaffle1D<ePowerSolidThermoPhysics>
compressible::turbulentTemperatureCoupledBaffleMixed
compressible::turbulentTemperatureRadCoupledMixed
convectiveHeatTransfer
cyclic
cyclicAMI
cyclicSlip
directionMixed
empty
energyJump
energyJumpAMI
entrainmentPressure
epsilonWallFunction
externalCoupled
externalCoupledTemperature
externalWallHeatFluxTemperature
extrapolatedCalculated
fWallFunction
fanPressure
fanPressureJump
fixedEnergy
fixedFluxExtrapolatedPressure
fixedFluxPressure
fixedGradient
fixedInternalValue
fixedJump
fixedJumpAMI
fixedMean
fixedMeanOutletInlet
fixedPressureCompressibleDensity
fixedProfile
fixedUnburntEnthalpy
fixedValue
fixedValueInletOutlet
freestream
freestreamPressure
gradientEnergy
gradientUnburntEnthalpy
inletOutlet
inletOutletTotalTemperature
interfaceCompression
internal
kLowReWallFunction
kqRWallFunction
mapped
mappedField
mappedFixedInternalValue
mixed
mixedEnergy
mixedUnburntEnthalpy
nonConformalCyclic
nonConformalError
nonConformalProcessorCyclic
nutLowReWallFunction
nutURoughWallFunction
nutUSpaldingWallFunction
nutUWallFunction
nutkRoughWallFunction
nutkWallFunction
omegaWallFunction
outletInlet
outletMappedUniformInlet
partialSlip
phaseHydrostaticPressure
plenumPressure
porousBafflePressure
pressure
prghEntrainmentPressure
prghPressure
prghTotalHydrostaticPressure
prghTotalPressure
prghUniformDensityHydrostaticPressure
processor
processorCyclic
rotatingTotalPressure
slip
symmetry
symmetryPlane
syringePressure
timeVaryingMappedFixedValue
totalFlowRateAdvectiveDiffusive
totalPressure
totalTemperature
transonicEntrainmentPressure
turbulentInlet
turbulentIntensityKineticEnergyInlet
turbulentMixingLengthDissipationRateInlet
turbulentMixingLengthFrequencyInlet
uniformDensityHydrostaticPressure
uniformFixedGradient
uniformFixedValue
uniformInletOutlet
uniformJump
uniformJumpAMI
uniformTotalPressure
v2WallFunction
variableHeightFlowRate
waveSurfacePressure
waveTransmissive
wedge
zeroGradient
)


file: /mnt/home/DDN_Copy/rpi/pxu10/criteria/qwen3.5-27b-claude-4.6-opus-benchmark/runs/BernardCells/1/0/alphat/boundaryField/hotWall from line 26 to line 27.

    From function static Foam::tmp<Foam::fvPatchField<Type> > Foam::fvPatchField<Type>::New(const Foam::fvPatch&, const Foam::DimensionedField<Type, Foam::volMesh>&, const Foam::dictionary&) [with Type = double]
    in file /mnt/home/pxu10/OpenFOAM/OpenFOAM-10/src/finiteVolume/lnInclude/fvPatchFieldNew.C at line 128.

FOAM exiting

