/*---------------------------------------------------------------------------*\
  =========                 |
  \\      /  F ield         | OpenFOAM: The Open Source CFD Toolbox
   \\    /   O peration     | Website:  https://openfoam.org
    \\  /    A nd           | Version:  10
     \\/     M anipulation  |
\*---------------------------------------------------------------------------*/
Build  : 10
Exec   : blockMesh
Date   : Apr 20 2026
Time   : 01:03:22
Host   : "alphagpu11"
PID    : 3463034
I/O    : uncollated
Case   : /mnt/home/DDN_Copy/rpi/pxu10/criteria/qwen3.5-27b-claude-4.6-opus-benchmark/runs/BernardCells/1
nProcs : 1
sigFpe : Enabling floating point exception trapping (FOAM_SIGFPE).
fileModificationChecking : Monitoring run-time modified files using timeStampMaster (fileModificationSkew 10)
allowSystemOperations : Allowing user-supplied system call operations

// * * * * * * * * * * * * * * * * * * * * * * * * * * * * * * * * * * * * * //
Create time

Deleting polyMesh directory
    "/mnt/home/DDN_Copy/rpi/pxu10/criteria/qwen3.5-27b-claude-4.6-opus-benchmark/runs/BernardCells/1/constant/polyMesh"
Reading "blockMeshDict"

Creating block mesh from
    "system/blockMeshDict"
Creating block edges
No non-planar block faces defined
Creating topology blocks
Creating topology patches

Creating block mesh topology

Check topology

	Basic statistics
		Number of internal faces : 0
		Number of boundary faces : 6
		Number of defined boundary faces : 6
		Number of undefined boundary faces : 0
	Checking patch -> block consistency

Creating block offsets
Creating merge list .

Creating polyMesh from blockMesh
Creating patches
Creating cells
Creating points with scale 1
    Block 0 cell size :
        i : 0.1 .. 0.1
        j : 0.02 .. 0.02
        k : 0.05 .. 0.05

Writing polyMesh
----------------
Mesh Information
----------------
  boundingBox: (0 0 0) (9 1 2)
  nPoints: 190281
  nCells: 180000
  nFaces: 550100
  nInternalFaces: 529900
----------------
Patches
----------------
  patch 0 (start: 529900 size: 3600) name: hotWall
  patch 1 (start: 533500 size: 3600) name: coldWall
  patch 2 (start: 537100 size: 4500) name: bottomWall
  patch 3 (start: 541600 size: 4500) name: topWall
  patch 4 (start: 546100 size: 2000) name: leftWall
  patch 5 (start: 548100 size: 2000) name: rightWall

End

