/*---------------------------------------------------------------------------*\
  =========                 |
  \\      /  F ield         | OpenFOAM: The Open Source CFD Toolbox
   \\    /   O peration     | Website:  https://openfoam.org
    \\  /    A nd           | Version:  10
     \\/     M anipulation  |
\*---------------------------------------------------------------------------*/
Build  : 10
Exec   : pimpleFoam
Date   : Apr 19 2026
Time   : 01:26:19
Host   : "alphagpu11"
PID    : 2834570
I/O    : uncollated
Case   : /mnt/home/DDN_Copy/rpi/pxu10/criteria/qwen3.5-35b-benchmark/runs/pitzDaily/1
nProcs : 1
sigFpe : Enabling floating point exception trapping (FOAM_SIGFPE).
fileModificationChecking : Monitoring run-time modified files using timeStampMaster (fileModificationSkew 10)
allowSystemOperations : Allowing user-supplied system call operations

// * * * * * * * * * * * * * * * * * * * * * * * * * * * * * * * * * * * * * //
Create time

Create mesh for time = 0


PIMPLE: Convergence criteria found
        "(U|k|omega|nut)": tolerance 0.001
        p: tolerance 0.0001


PIMPLE: No corrector convergence criteria found
        Calculations will do 2 corrections


PIMPLE: Operating solver in transient mode with 2 outer correctors


Reading field p

Reading field U

Reading/calculating face flux field phi

Selecting viscosity model Newtonian
Selecting turbulence model type RAS
Selecting RAS turbulence model kOmegaSST
Selecting patchDistMethod meshWave
RAS
{
    RASModel        kOmegaSST;
    turbulence      on;
    printCoeffs     on;
    alphaK1         0.85;
    alphaK2         1;
    alphaOmega1     0.5;
    alphaOmega2     0.856;
    gamma1          0.5555555556;
    gamma2          0.44;
    beta1           0.075;
    beta2           0.0828;
    betaStar        0.09;
    a1              0.31;
    b1              1;
    c1              10;
    F3              false;
}

No MRF models present

No fvModels present
No fvConstraints present
Courant Number mean: 0.9894736842 max: 1

Starting time loop

Courant Number mean: 0.9894736842 max: 1
Time = 0.0001s

PIMPLE: Iteration 1
DILUPBiCGStab:  Solving for Uy, Initial residual = 1, Final residual = 0.01464909511, No Iterations 1
GAMG:  Solving for p, Initial residual = 1, Final residual = 7.109831964e+114, No Iterations 1000
time step continuity errors : sum local = 7.486644899e+112, global = 1.340155248e+91, cumulative = 1.340155248e+91


--> FOAM FATAL IO ERROR: 
keyword pFinal is undefined in dictionary "/mnt/home/DDN_Copy/rpi/pxu10/criteria/qwen3.5-35b-benchmark/runs/pitzDaily/1/system/fvSolution/solvers"

file: /mnt/home/DDN_Copy/rpi/pxu10/criteria/qwen3.5-35b-benchmark/runs/pitzDaily/1/system/fvSolution/solvers from line 13 to line 24.

    From function const Foam::dictionary& Foam::dictionary::subDict(const Foam::word&) const
    in file db/dictionary/dictionary.C at line 1008.

FOAM exiting

